/*---------------------------------------------------------------------------*\
| =========                 |                                                 |
| \\      /  F ield         | OpenFOAM: The Open Source CFD Toolbox           |
|  \\    /   O peration     | Version:  v2006                                 |
|   \\  /    A nd           | Website:  www.openfoam.com                      |
|    \\/     M anipulation  |                                                 |
\*---------------------------------------------------------------------------*/
Build  : _b45f8f6f58-20200629 OPENFOAM=2006
Arch   : "LSB;label=32;scalar=64"
Exec   : 00burgers
Date   : Nov 13 2020
Time   : 16:13:37
Host   : zeus
PID    : 96928
I/O    : uncollated
Case   : /home/fromor/OpenFOAM/OpenFOAM-v2006/applications/utilities/ITHACA-FV/tutorials/CFD/00burgers
nProcs : 1
trapFpe: Floating point exception trapping enabled (FOAM_SIGFPE).
fileModificationChecking : Monitoring run-time modified files using timeStampMaster (fileModificationSkew 5, maxFileModificationPolls 20)
allowSystemOperations : Allowing user-supplied system call operations

// * * * * * * * * * * * * * * * * * * * * * * * * * * * * * * * * * * * * * //
Reading field U

Create time

Reading field p

Create mesh for time = 0


SIMPLE: no convergence criteria found. Calculations will run for 2 steps.

Reading field U

Reading transportProperties

Reading viscosity nu

Reading/calculating face flux field phi

Offline don't exist, performing the Offline Solve
POD don't exist, performing a POD decomposition
 #################### DEBUG ~/OpenFOAM/OpenFOAM-v2006/applications/utilities/ITHACA-FV/src/ITHACA_FOMPROBLEMS/burgers/burgers.C, line 101 #################### viscosity: nu [0 2 -1 0 0 0 0] 0.0001

Calculating vector transport

Courant Number mean: 0.00364696 max: 0.0359289
deltaT = 0.001
Time = 0.001

Time = 0.002

DILUPBiCGStab:  Solving for Ux, Initial residual = 0.000215662, Final residual = 7.68945e-10, No Iterations 1
DILUPBiCGStab:  Solving for Uy, Initial residual = 0.000215662, Final residual = 7.68945e-10, No Iterations 1
 #################### DEBUG ~/OpenFOAM/OpenFOAM-v2006/applications/utilities/ITHACA-FV/src/ITHACA_FOMPROBLEMS/burgers/burgers.C, line 637 #################### 0.0007 0.001
Time = 0.003

DILUPBiCGStab:  Solving for Ux, Initial residual = 0.000172804, Final residual = 4.96426e-10, No Iterations 1
DILUPBiCGStab:  Solving for Uy, Initial residual = 0.000172804, Final residual = 4.96426e-10, No Iterations 1
 #################### DEBUG ~/OpenFOAM/OpenFOAM-v2006/applications/utilities/ITHACA-FV/src/ITHACA_FOMPROBLEMS/burgers/burgers.C, line 637 #################### 0.0004 0.001
Time = 0.004

DILUPBiCGStab:  Solving for Ux, Initial residual = 0.000172809, Final residual = 4.96433e-10, No Iterations 1
DILUPBiCGStab:  Solving for Uy, Initial residual = 0.000172809, Final residual = 4.96433e-10, No Iterations 1
 #################### DEBUG ~/OpenFOAM/OpenFOAM-v2006/applications/utilities/ITHACA-FV/src/ITHACA_FOMPROBLEMS/burgers/burgers.C, line 637 #################### 0.0001 0.001
Time = 0.005

DILUPBiCGStab:  Solving for Ux, Initial residual = 0.000172813, Final residual = 4.96439e-10, No Iterations 1
DILUPBiCGStab:  Solving for Uy, Initial residual = 0.000172813, Final residual = 4.96439e-10, No Iterations 1
 #################### DEBUG ~/OpenFOAM/OpenFOAM-v2006/applications/utilities/ITHACA-FV/src/ITHACA_FOMPROBLEMS/burgers/burgers.C, line 637 #################### 0.0002 0.001
Time = 0.006

DILUPBiCGStab:  Solving for Ux, Initial residual = 0.000172817, Final residual = 4.96442e-10, No Iterations 1
DILUPBiCGStab:  Solving for Uy, Initial residual = 0.000172817, Final residual = 4.96442e-10, No Iterations 1
 #################### DEBUG ~/OpenFOAM/OpenFOAM-v2006/applications/utilities/ITHACA-FV/src/ITHACA_FOMPROBLEMS/burgers/burgers.C, line 637 #################### 0.0005 0.001
Time = 0.007

DILUPBiCGStab:  Solving for Ux, Initial residual = 0.000172821, Final residual = 4.96443e-10, No Iterations 1
DILUPBiCGStab:  Solving for Uy, Initial residual = 0.000172821, Final residual = 4.96443e-10, No Iterations 1
 #################### DEBUG ~/OpenFOAM/OpenFOAM-v2006/applications/utilities/ITHACA-FV/src/ITHACA_FOMPROBLEMS/burgers/burgers.C, line 637 #################### 0.0008 0.001
Time = 0.008

DILUPBiCGStab:  Solving for Ux, Initial residual = 0.000172824, Final residual = 4.96439e-10, No Iterations 1
DILUPBiCGStab:  Solving for Uy, Initial residual = 0.000172824, Final residual = 4.96439e-10, No Iterations 1
 #################### DEBUG ~/OpenFOAM/OpenFOAM-v2006/applications/utilities/ITHACA-FV/src/ITHACA_FOMPROBLEMS/burgers/burgers.C, line 637 #################### 0.0011 0.001
Time = 0.009

DILUPBiCGStab:  Solving for Ux, Initial residual = 0.000172827, Final residual = 4.96433e-10, No Iterations 1
DILUPBiCGStab:  Solving for Uy, Initial residual = 0.000172827, Final residual = 4.96433e-10, No Iterations 1
 #################### DEBUG ~/OpenFOAM/OpenFOAM-v2006/applications/utilities/ITHACA-FV/src/ITHACA_FOMPROBLEMS/burgers/burgers.C, line 637 #################### 0.0001 0.001
Time = 0.01

DILUPBiCGStab:  Solving for Ux, Initial residual = 0.000172829, Final residual = 4.96424e-10, No Iterations 1
DILUPBiCGStab:  Solving for Uy, Initial residual = 0.000172829, Final residual = 4.96424e-10, No Iterations 1
 #################### DEBUG ~/OpenFOAM/OpenFOAM-v2006/applications/utilities/ITHACA-FV/src/ITHACA_FOMPROBLEMS/burgers/burgers.C, line 637 #################### 0.0004 0.001
Time = 0.011

DILUPBiCGStab:  Solving for Ux, Initial residual = 0.000172831, Final residual = 4.96411e-10, No Iterations 1
DILUPBiCGStab:  Solving for Uy, Initial residual = 0.000172831, Final residual = 4.96411e-10, No Iterations 1
 #################### DEBUG ~/OpenFOAM/OpenFOAM-v2006/applications/utilities/ITHACA-FV/src/ITHACA_FOMPROBLEMS/burgers/burgers.C, line 637 #################### 0.0007 0.001
Time = 0.012

DILUPBiCGStab:  Solving for Ux, Initial residual = 0.000172832, Final residual = 4.96395e-10, No Iterations 1
DILUPBiCGStab:  Solving for Uy, Initial residual = 0.000172832, Final residual = 4.96395e-10, No Iterations 1
 #################### DEBUG ~/OpenFOAM/OpenFOAM-v2006/applications/utilities/ITHACA-FV/src/ITHACA_FOMPROBLEMS/burgers/burgers.C, line 637 #################### 0.001 0.001
Time = 0.013

DILUPBiCGStab:  Solving for Ux, Initial residual = 0.000172833, Final residual = 4.96377e-10, No Iterations 1
DILUPBiCGStab:  Solving for Uy, Initial residual = 0.000172833, Final residual = 4.96377e-10, No Iterations 1
 #################### DEBUG ~/OpenFOAM/OpenFOAM-v2006/applications/utilities/ITHACA-FV/src/ITHACA_FOMPROBLEMS/burgers/burgers.C, line 637 #################### 0.0013 0.001
Time = 0.014

DILUPBiCGStab:  Solving for Ux, Initial residual = 0.000172834, Final residual = 4.96358e-10, No Iterations 1
DILUPBiCGStab:  Solving for Uy, Initial residual = 0.000172834, Final residual = 4.96358e-10, No Iterations 1
 #################### DEBUG ~/OpenFOAM/OpenFOAM-v2006/applications/utilities/ITHACA-FV/src/ITHACA_FOMPROBLEMS/burgers/burgers.C, line 637 #################### 0.0003 0.001
Time = 0.015

DILUPBiCGStab:  Solving for Ux, Initial residual = 0.000172834, Final residual = 4.96341e-10, No Iterations 1
DILUPBiCGStab:  Solving for Uy, Initial residual = 0.000172834, Final residual = 4.96341e-10, No Iterations 1
 #################### DEBUG ~/OpenFOAM/OpenFOAM-v2006/applications/utilities/ITHACA-FV/src/ITHACA_FOMPROBLEMS/burgers/burgers.C, line 637 #################### 0.0006 0.001
Time = 0.016

DILUPBiCGStab:  Solving for Ux, Initial residual = 0.000172833, Final residual = 4.96324e-10, No Iterations 1
DILUPBiCGStab:  Solving for Uy, Initial residual = 0.000172833, Final residual = 4.96324e-10, No Iterations 1
 #################### DEBUG ~/OpenFOAM/OpenFOAM-v2006/applications/utilities/ITHACA-FV/src/ITHACA_FOMPROBLEMS/burgers/burgers.C, line 637 #################### 0.0009 0.001
Time = 0.017

DILUPBiCGStab:  Solving for Ux, Initial residual = 0.000172832, Final residual = 4.96305e-10, No Iterations 1
DILUPBiCGStab:  Solving for Uy, Initial residual = 0.000172832, Final residual = 4.96305e-10, No Iterations 1
 #################### DEBUG ~/OpenFOAM/OpenFOAM-v2006/applications/utilities/ITHACA-FV/src/ITHACA_FOMPROBLEMS/burgers/burgers.C, line 637 #################### 0.0012 0.001
Time = 0.018

DILUPBiCGStab:  Solving for Ux, Initial residual = 0.000172831, Final residual = 4.96284e-10, No Iterations 1
DILUPBiCGStab:  Solving for Uy, Initial residual = 0.000172831, Final residual = 4.96284e-10, No Iterations 1
 #################### DEBUG ~/OpenFOAM/OpenFOAM-v2006/applications/utilities/ITHACA-FV/src/ITHACA_FOMPROBLEMS/burgers/burgers.C, line 637 #################### 0.0002 0.001
Time = 0.019

DILUPBiCGStab:  Solving for Ux, Initial residual = 0.000172829, Final residual = 4.96259e-10, No Iterations 1
DILUPBiCGStab:  Solving for Uy, Initial residual = 0.000172829, Final residual = 4.96259e-10, No Iterations 1
 #################### DEBUG ~/OpenFOAM/OpenFOAM-v2006/applications/utilities/ITHACA-FV/src/ITHACA_FOMPROBLEMS/burgers/burgers.C, line 637 #################### 0.0005 0.001
Time = 0.02

DILUPBiCGStab:  Solving for Ux, Initial residual = 0.000172826, Final residual = 4.9623e-10, No Iterations 1
DILUPBiCGStab:  Solving for Uy, Initial residual = 0.000172826, Final residual = 4.9623e-10, No Iterations 1
 #################### DEBUG ~/OpenFOAM/OpenFOAM-v2006/applications/utilities/ITHACA-FV/src/ITHACA_FOMPROBLEMS/burgers/burgers.C, line 637 #################### 0.0008 0.001
Time = 0.021

DILUPBiCGStab:  Solving for Ux, Initial residual = 0.000172824, Final residual = 4.96199e-10, No Iterations 1
DILUPBiCGStab:  Solving for Uy, Initial residual = 0.000172824, Final residual = 4.96199e-10, No Iterations 1
 #################### DEBUG ~/OpenFOAM/OpenFOAM-v2006/applications/utilities/ITHACA-FV/src/ITHACA_FOMPROBLEMS/burgers/burgers.C, line 637 #################### 0.0011 0.001
Time = 0.022

DILUPBiCGStab:  Solving for Ux, Initial residual = 0.00017282, Final residual = 4.96168e-10, No Iterations 1
DILUPBiCGStab:  Solving for Uy, Initial residual = 0.00017282, Final residual = 4.96168e-10, No Iterations 1
 #################### DEBUG ~/OpenFOAM/OpenFOAM-v2006/applications/utilities/ITHACA-FV/src/ITHACA_FOMPROBLEMS/burgers/burgers.C, line 637 #################### 0.0001 0.001
Time = 0.023

DILUPBiCGStab:  Solving for Ux, Initial residual = 0.000172817, Final residual = 4.96135e-10, No Iterations 1
DILUPBiCGStab:  Solving for Uy, Initial residual = 0.000172817, Final residual = 4.96135e-10, No Iterations 1
 #################### DEBUG ~/OpenFOAM/OpenFOAM-v2006/applications/utilities/ITHACA-FV/src/ITHACA_FOMPROBLEMS/burgers/burgers.C, line 637 #################### 0.0004 0.001
Time = 0.024

DILUPBiCGStab:  Solving for Ux, Initial residual = 0.000172812, Final residual = 4.96104e-10, No Iterations 1
DILUPBiCGStab:  Solving for Uy, Initial residual = 0.000172812, Final residual = 4.96104e-10, No Iterations 1
 #################### DEBUG ~/OpenFOAM/OpenFOAM-v2006/applications/utilities/ITHACA-FV/src/ITHACA_FOMPROBLEMS/burgers/burgers.C, line 637 #################### 0.0007 0.001
Time = 0.025

DILUPBiCGStab:  Solving for Ux, Initial residual = 0.000172808, Final residual = 4.96069e-10, No Iterations 1
DILUPBiCGStab:  Solving for Uy, Initial residual = 0.000172808, Final residual = 4.96069e-10, No Iterations 1
 #################### DEBUG ~/OpenFOAM/OpenFOAM-v2006/applications/utilities/ITHACA-FV/src/ITHACA_FOMPROBLEMS/burgers/burgers.C, line 637 #################### 0.001 0.001
Time = 0.026

DILUPBiCGStab:  Solving for Ux, Initial residual = 0.000172803, Final residual = 4.96032e-10, No Iterations 1
DILUPBiCGStab:  Solving for Uy, Initial residual = 0.000172803, Final residual = 4.96032e-10, No Iterations 1
 #################### DEBUG ~/OpenFOAM/OpenFOAM-v2006/applications/utilities/ITHACA-FV/src/ITHACA_FOMPROBLEMS/burgers/burgers.C, line 637 #################### 0.0013 0.001
Time = 0.027

DILUPBiCGStab:  Solving for Ux, Initial residual = 0.000172797, Final residual = 4.95991e-10, No Iterations 1
DILUPBiCGStab:  Solving for Uy, Initial residual = 0.000172797, Final residual = 4.95991e-10, No Iterations 1
 #################### DEBUG ~/OpenFOAM/OpenFOAM-v2006/applications/utilities/ITHACA-FV/src/ITHACA_FOMPROBLEMS/burgers/burgers.C, line 637 #################### 0.0003 0.001
Time = 0.028

DILUPBiCGStab:  Solving for Ux, Initial residual = 0.000172791, Final residual = 4.95947e-10, No Iterations 1
DILUPBiCGStab:  Solving for Uy, Initial residual = 0.000172791, Final residual = 4.95947e-10, No Iterations 1
 #################### DEBUG ~/OpenFOAM/OpenFOAM-v2006/applications/utilities/ITHACA-FV/src/ITHACA_FOMPROBLEMS/burgers/burgers.C, line 637 #################### 0.0006 0.001
Time = 0.029

DILUPBiCGStab:  Solving for Ux, Initial residual = 0.000172785, Final residual = 4.959e-10, No Iterations 1
DILUPBiCGStab:  Solving for Uy, Initial residual = 0.000172785, Final residual = 4.959e-10, No Iterations 1
 #################### DEBUG ~/OpenFOAM/OpenFOAM-v2006/applications/utilities/ITHACA-FV/src/ITHACA_FOMPROBLEMS/burgers/burgers.C, line 637 #################### 0.0009 0.001
Time = 0.03

DILUPBiCGStab:  Solving for Ux, Initial residual = 0.000172778, Final residual = 4.95856e-10, No Iterations 1
DILUPBiCGStab:  Solving for Uy, Initial residual = 0.000172778, Final residual = 4.95856e-10, No Iterations 1
 #################### DEBUG ~/OpenFOAM/OpenFOAM-v2006/applications/utilities/ITHACA-FV/src/ITHACA_FOMPROBLEMS/burgers/burgers.C, line 637 #################### 0.0012 0.001
Time = 0.031

DILUPBiCGStab:  Solving for Ux, Initial residual = 0.00017277, Final residual = 4.95819e-10, No Iterations 1
DILUPBiCGStab:  Solving for Uy, Initial residual = 0.00017277, Final residual = 4.95819e-10, No Iterations 1
 #################### DEBUG ~/OpenFOAM/OpenFOAM-v2006/applications/utilities/ITHACA-FV/src/ITHACA_FOMPROBLEMS/burgers/burgers.C, line 637 #################### 0.0002 0.001
Time = 0.032

DILUPBiCGStab:  Solving for Ux, Initial residual = 0.000172763, Final residual = 4.95805e-10, No Iterations 1
DILUPBiCGStab:  Solving for Uy, Initial residual = 0.000172763, Final residual = 4.95805e-10, No Iterations 1
 #################### DEBUG ~/OpenFOAM/OpenFOAM-v2006/applications/utilities/ITHACA-FV/src/ITHACA_FOMPROBLEMS/burgers/burgers.C, line 637 #################### 0.0005 0.001
Time = 0.033

DILUPBiCGStab:  Solving for Ux, Initial residual = 0.00017276, Final residual = 4.95797e-10, No Iterations 1
DILUPBiCGStab:  Solving for Uy, Initial residual = 0.00017276, Final residual = 4.95797e-10, No Iterations 1
 #################### DEBUG ~/OpenFOAM/OpenFOAM-v2006/applications/utilities/ITHACA-FV/src/ITHACA_FOMPROBLEMS/burgers/burgers.C, line 637 #################### 0.0008 0.001
Time = 0.034

DILUPBiCGStab:  Solving for Ux, Initial residual = 0.000172759, Final residual = 4.95795e-10, No Iterations 1
DILUPBiCGStab:  Solving for Uy, Initial residual = 0.000172759, Final residual = 4.95795e-10, No Iterations 1
 #################### DEBUG ~/OpenFOAM/OpenFOAM-v2006/applications/utilities/ITHACA-FV/src/ITHACA_FOMPROBLEMS/burgers/burgers.C, line 637 #################### 0.0011 0.001
Time = 0.035

DILUPBiCGStab:  Solving for Ux, Initial residual = 0.000172759, Final residual = 4.95794e-10, No Iterations 1
DILUPBiCGStab:  Solving for Uy, Initial residual = 0.000172759, Final residual = 4.95794e-10, No Iterations 1
 #################### DEBUG ~/OpenFOAM/OpenFOAM-v2006/applications/utilities/ITHACA-FV/src/ITHACA_FOMPROBLEMS/burgers/burgers.C, line 637 #################### 0.0001 0.001
Time = 0.036

DILUPBiCGStab:  Solving for Ux, Initial residual = 0.000172759, Final residual = 4.95795e-10, No Iterations 1
DILUPBiCGStab:  Solving for Uy, Initial residual = 0.000172759, Final residual = 4.95795e-10, No Iterations 1
 #################### DEBUG ~/OpenFOAM/OpenFOAM-v2006/applications/utilities/ITHACA-FV/src/ITHACA_FOMPROBLEMS/burgers/burgers.C, line 637 #################### 0.0004 0.001
Time = 0.037

DILUPBiCGStab:  Solving for Ux, Initial residual = 0.000172761, Final residual = 4.95799e-10, No Iterations 1
DILUPBiCGStab:  Solving for Uy, Initial residual = 0.000172761, Final residual = 4.95799e-10, No Iterations 1
 #################### DEBUG ~/OpenFOAM/OpenFOAM-v2006/applications/utilities/ITHACA-FV/src/ITHACA_FOMPROBLEMS/burgers/burgers.C, line 637 #################### 0.0007 0.001
Time = 0.038

DILUPBiCGStab:  Solving for Ux, Initial residual = 0.000172762, Final residual = 4.95806e-10, No Iterations 1
DILUPBiCGStab:  Solving for Uy, Initial residual = 0.000172762, Final residual = 4.95806e-10, No Iterations 1
 #################### DEBUG ~/OpenFOAM/OpenFOAM-v2006/applications/utilities/ITHACA-FV/src/ITHACA_FOMPROBLEMS/burgers/burgers.C, line 637 #################### 0.001 0.001
Time = 0.039

DILUPBiCGStab:  Solving for Ux, Initial residual = 0.000172764, Final residual = 4.95812e-10, No Iterations 1
DILUPBiCGStab:  Solving for Uy, Initial residual = 0.000172764, Final residual = 4.95812e-10, No Iterations 1
 #################### DEBUG ~/OpenFOAM/OpenFOAM-v2006/applications/utilities/ITHACA-FV/src/ITHACA_FOMPROBLEMS/burgers/burgers.C, line 637 #################### 0 0.001
Time = 0.04

DILUPBiCGStab:  Solving for Ux, Initial residual = 0.000172766, Final residual = 4.95816e-10, No Iterations 1
DILUPBiCGStab:  Solving for Uy, Initial residual = 0.000172766, Final residual = 4.95816e-10, No Iterations 1
 #################### DEBUG ~/OpenFOAM/OpenFOAM-v2006/applications/utilities/ITHACA-FV/src/ITHACA_FOMPROBLEMS/burgers/burgers.C, line 637 #################### 0.0003 0.001
Time = 0.041

DILUPBiCGStab:  Solving for Ux, Initial residual = 0.000172768, Final residual = 4.95816e-10, No Iterations 1
DILUPBiCGStab:  Solving for Uy, Initial residual = 0.000172768, Final residual = 4.95816e-10, No Iterations 1
 #################### DEBUG ~/OpenFOAM/OpenFOAM-v2006/applications/utilities/ITHACA-FV/src/ITHACA_FOMPROBLEMS/burgers/burgers.C, line 637 #################### 0.0006 0.001
Time = 0.042

DILUPBiCGStab:  Solving for Ux, Initial residual = 0.00017277, Final residual = 4.95813e-10, No Iterations 1
DILUPBiCGStab:  Solving for Uy, Initial residual = 0.00017277, Final residual = 4.95813e-10, No Iterations 1
 #################### DEBUG ~/OpenFOAM/OpenFOAM-v2006/applications/utilities/ITHACA-FV/src/ITHACA_FOMPROBLEMS/burgers/burgers.C, line 637 #################### 0.0009 0.001
Time = 0.043

DILUPBiCGStab:  Solving for Ux, Initial residual = 0.000172772, Final residual = 4.95807e-10, No Iterations 1
DILUPBiCGStab:  Solving for Uy, Initial residual = 0.000172772, Final residual = 4.95807e-10, No Iterations 1
 #################### DEBUG ~/OpenFOAM/OpenFOAM-v2006/applications/utilities/ITHACA-FV/src/ITHACA_FOMPROBLEMS/burgers/burgers.C, line 637 #################### 0.0012 0.001
Time = 0.044

DILUPBiCGStab:  Solving for Ux, Initial residual = 0.000172773, Final residual = 4.95802e-10, No Iterations 1
DILUPBiCGStab:  Solving for Uy, Initial residual = 0.000172773, Final residual = 4.95802e-10, No Iterations 1
 #################### DEBUG ~/OpenFOAM/OpenFOAM-v2006/applications/utilities/ITHACA-FV/src/ITHACA_FOMPROBLEMS/burgers/burgers.C, line 637 #################### 0.0002 0.001
Time = 0.045

DILUPBiCGStab:  Solving for Ux, Initial residual = 0.000172775, Final residual = 4.95794e-10, No Iterations 1
DILUPBiCGStab:  Solving for Uy, Initial residual = 0.000172775, Final residual = 4.95794e-10, No Iterations 1
 #################### DEBUG ~/OpenFOAM/OpenFOAM-v2006/applications/utilities/ITHACA-FV/src/ITHACA_FOMPROBLEMS/burgers/burgers.C, line 637 #################### 0.0005 0.001
Time = 0.046

DILUPBiCGStab:  Solving for Ux, Initial residual = 0.000172777, Final residual = 4.95784e-10, No Iterations 1
DILUPBiCGStab:  Solving for Uy, Initial residual = 0.000172777, Final residual = 4.95784e-10, No Iterations 1
 #################### DEBUG ~/OpenFOAM/OpenFOAM-v2006/applications/utilities/ITHACA-FV/src/ITHACA_FOMPROBLEMS/burgers/burgers.C, line 637 #################### 0.0008 0.001
Time = 0.047

DILUPBiCGStab:  Solving for Ux, Initial residual = 0.000172778, Final residual = 4.95773e-10, No Iterations 1
DILUPBiCGStab:  Solving for Uy, Initial residual = 0.000172778, Final residual = 4.95773e-10, No Iterations 1
 #################### DEBUG ~/OpenFOAM/OpenFOAM-v2006/applications/utilities/ITHACA-FV/src/ITHACA_FOMPROBLEMS/burgers/burgers.C, line 637 #################### 0.0011 0.001
Time = 0.048

DILUPBiCGStab:  Solving for Ux, Initial residual = 0.000172779, Final residual = 4.95761e-10, No Iterations 1
DILUPBiCGStab:  Solving for Uy, Initial residual = 0.000172779, Final residual = 4.95761e-10, No Iterations 1
 #################### DEBUG ~/OpenFOAM/OpenFOAM-v2006/applications/utilities/ITHACA-FV/src/ITHACA_FOMPROBLEMS/burgers/burgers.C, line 637 #################### 0.0001 0.001
Time = 0.049

DILUPBiCGStab:  Solving for Ux, Initial residual = 0.000172779, Final residual = 4.95746e-10, No Iterations 1
DILUPBiCGStab:  Solving for Uy, Initial residual = 0.000172779, Final residual = 4.95746e-10, No Iterations 1
 #################### DEBUG ~/OpenFOAM/OpenFOAM-v2006/applications/utilities/ITHACA-FV/src/ITHACA_FOMPROBLEMS/burgers/burgers.C, line 637 #################### 0.0004 0.001
Time = 0.05

DILUPBiCGStab:  Solving for Ux, Initial residual = 0.00017278, Final residual = 4.9573e-10, No Iterations 1
DILUPBiCGStab:  Solving for Uy, Initial residual = 0.00017278, Final residual = 4.9573e-10, No Iterations 1
 #################### DEBUG ~/OpenFOAM/OpenFOAM-v2006/applications/utilities/ITHACA-FV/src/ITHACA_FOMPROBLEMS/burgers/burgers.C, line 637 #################### 0.0007 0.001
Time = 0.051

DILUPBiCGStab:  Solving for Ux, Initial residual = 0.00017278, Final residual = 4.9571e-10, No Iterations 1
DILUPBiCGStab:  Solving for Uy, Initial residual = 0.00017278, Final residual = 4.9571e-10, No Iterations 1
 #################### DEBUG ~/OpenFOAM/OpenFOAM-v2006/applications/utilities/ITHACA-FV/src/ITHACA_FOMPROBLEMS/burgers/burgers.C, line 637 #################### 0.001 0.001
Time = 0.052

DILUPBiCGStab:  Solving for Ux, Initial residual = 0.000172779, Final residual = 4.95688e-10, No Iterations 1
DILUPBiCGStab:  Solving for Uy, Initial residual = 0.000172779, Final residual = 4.95688e-10, No Iterations 1
 #################### DEBUG ~/OpenFOAM/OpenFOAM-v2006/applications/utilities/ITHACA-FV/src/ITHACA_FOMPROBLEMS/burgers/burgers.C, line 637 #################### 2.77556e-17 0.001
Time = 0.053

DILUPBiCGStab:  Solving for Ux, Initial residual = 0.000172779, Final residual = 4.95663e-10, No Iterations 1
DILUPBiCGStab:  Solving for Uy, Initial residual = 0.000172779, Final residual = 4.95663e-10, No Iterations 1
 #################### DEBUG ~/OpenFOAM/OpenFOAM-v2006/applications/utilities/ITHACA-FV/src/ITHACA_FOMPROBLEMS/burgers/burgers.C, line 637 #################### 0.0003 0.001
Time = 0.054

DILUPBiCGStab:  Solving for Ux, Initial residual = 0.000172778, Final residual = 4.95636e-10, No Iterations 1
DILUPBiCGStab:  Solving for Uy, Initial residual = 0.000172778, Final residual = 4.95636e-10, No Iterations 1
 #################### DEBUG ~/OpenFOAM/OpenFOAM-v2006/applications/utilities/ITHACA-FV/src/ITHACA_FOMPROBLEMS/burgers/burgers.C, line 637 #################### 0.0006 0.001
Time = 0.055

DILUPBiCGStab:  Solving for Ux, Initial residual = 0.000172777, Final residual = 4.95609e-10, No Iterations 1
DILUPBiCGStab:  Solving for Uy, Initial residual = 0.000172777, Final residual = 4.95609e-10, No Iterations 1
 #################### DEBUG ~/OpenFOAM/OpenFOAM-v2006/applications/utilities/ITHACA-FV/src/ITHACA_FOMPROBLEMS/burgers/burgers.C, line 637 #################### 0.0009 0.001
Time = 0.056

DILUPBiCGStab:  Solving for Ux, Initial residual = 0.000172776, Final residual = 4.95579e-10, No Iterations 1
DILUPBiCGStab:  Solving for Uy, Initial residual = 0.000172776, Final residual = 4.95579e-10, No Iterations 1
 #################### DEBUG ~/OpenFOAM/OpenFOAM-v2006/applications/utilities/ITHACA-FV/src/ITHACA_FOMPROBLEMS/burgers/burgers.C, line 637 #################### 0.0012 0.001
Time = 0.057

DILUPBiCGStab:  Solving for Ux, Initial residual = 0.000172774, Final residual = 4.95546e-10, No Iterations 1
DILUPBiCGStab:  Solving for Uy, Initial residual = 0.000172774, Final residual = 4.95546e-10, No Iterations 1
 #################### DEBUG ~/OpenFOAM/OpenFOAM-v2006/applications/utilities/ITHACA-FV/src/ITHACA_FOMPROBLEMS/burgers/burgers.C, line 637 #################### 0.0002 0.001
Time = 0.058

DILUPBiCGStab:  Solving for Ux, Initial residual = 0.000172771, Final residual = 4.95509e-10, No Iterations 1
DILUPBiCGStab:  Solving for Uy, Initial residual = 0.000172771, Final residual = 4.95509e-10, No Iterations 1
 #################### DEBUG ~/OpenFOAM/OpenFOAM-v2006/applications/utilities/ITHACA-FV/src/ITHACA_FOMPROBLEMS/burgers/burgers.C, line 637 #################### 0.0005 0.001
Time = 0.059

DILUPBiCGStab:  Solving for Ux, Initial residual = 0.000172769, Final residual = 4.9547e-10, No Iterations 1
DILUPBiCGStab:  Solving for Uy, Initial residual = 0.000172769, Final residual = 4.9547e-10, No Iterations 1
 #################### DEBUG ~/OpenFOAM/OpenFOAM-v2006/applications/utilities/ITHACA-FV/src/ITHACA_FOMPROBLEMS/burgers/burgers.C, line 637 #################### 0.0008 0.001
Time = 0.06

DILUPBiCGStab:  Solving for Ux, Initial residual = 0.000172766, Final residual = 4.95431e-10, No Iterations 1
DILUPBiCGStab:  Solving for Uy, Initial residual = 0.000172766, Final residual = 4.95431e-10, No Iterations 1
 #################### DEBUG ~/OpenFOAM/OpenFOAM-v2006/applications/utilities/ITHACA-FV/src/ITHACA_FOMPROBLEMS/burgers/burgers.C, line 637 #################### 0.0011 0.001
Time = 0.061

DILUPBiCGStab:  Solving for Ux, Initial residual = 0.000172762, Final residual = 4.9539e-10, No Iterations 1
DILUPBiCGStab:  Solving for Uy, Initial residual = 0.000172762, Final residual = 4.9539e-10, No Iterations 1
 #################### DEBUG ~/OpenFOAM/OpenFOAM-v2006/applications/utilities/ITHACA-FV/src/ITHACA_FOMPROBLEMS/burgers/burgers.C, line 637 #################### 0.0001 0.001
Time = 0.062

DILUPBiCGStab:  Solving for Ux, Initial residual = 0.000172759, Final residual = 4.95346e-10, No Iterations 1
DILUPBiCGStab:  Solving for Uy, Initial residual = 0.000172759, Final residual = 4.95346e-10, No Iterations 1
 #################### DEBUG ~/OpenFOAM/OpenFOAM-v2006/applications/utilities/ITHACA-FV/src/ITHACA_FOMPROBLEMS/burgers/burgers.C, line 637 #################### 0.0004 0.001
Time = 0.063

DILUPBiCGStab:  Solving for Ux, Initial residual = 0.000172754, Final residual = 4.95299e-10, No Iterations 1
DILUPBiCGStab:  Solving for Uy, Initial residual = 0.000172754, Final residual = 4.95299e-10, No Iterations 1
 #################### DEBUG ~/OpenFOAM/OpenFOAM-v2006/applications/utilities/ITHACA-FV/src/ITHACA_FOMPROBLEMS/burgers/burgers.C, line 637 #################### 0.0007 0.001
Time = 0.064

DILUPBiCGStab:  Solving for Ux, Initial residual = 0.00017275, Final residual = 4.95249e-10, No Iterations 1
DILUPBiCGStab:  Solving for Uy, Initial residual = 0.00017275, Final residual = 4.95249e-10, No Iterations 1
 #################### DEBUG ~/OpenFOAM/OpenFOAM-v2006/applications/utilities/ITHACA-FV/src/ITHACA_FOMPROBLEMS/burgers/burgers.C, line 637 #################### 0.001 0.001
Time = 0.065

DILUPBiCGStab:  Solving for Ux, Initial residual = 0.000172745, Final residual = 4.95196e-10, No Iterations 1
DILUPBiCGStab:  Solving for Uy, Initial residual = 0.000172745, Final residual = 4.95196e-10, No Iterations 1
 #################### DEBUG ~/OpenFOAM/OpenFOAM-v2006/applications/utilities/ITHACA-FV/src/ITHACA_FOMPROBLEMS/burgers/burgers.C, line 637 #################### 4.16334e-17 0.001
Time = 0.066

DILUPBiCGStab:  Solving for Ux, Initial residual = 0.000172739, Final residual = 4.95141e-10, No Iterations 1
DILUPBiCGStab:  Solving for Uy, Initial residual = 0.000172739, Final residual = 4.95141e-10, No Iterations 1
 #################### DEBUG ~/OpenFOAM/OpenFOAM-v2006/applications/utilities/ITHACA-FV/src/ITHACA_FOMPROBLEMS/burgers/burgers.C, line 637 #################### 0.0003 0.001
Time = 0.067

DILUPBiCGStab:  Solving for Ux, Initial residual = 0.000172735, Final residual = 4.951e-10, No Iterations 1
DILUPBiCGStab:  Solving for Uy, Initial residual = 0.000172735, Final residual = 4.951e-10, No Iterations 1
 #################### DEBUG ~/OpenFOAM/OpenFOAM-v2006/applications/utilities/ITHACA-FV/src/ITHACA_FOMPROBLEMS/burgers/burgers.C, line 637 #################### 0.0006 0.001
Time = 0.068

DILUPBiCGStab:  Solving for Ux, Initial residual = 0.000172732, Final residual = 4.95066e-10, No Iterations 1
DILUPBiCGStab:  Solving for Uy, Initial residual = 0.000172732, Final residual = 4.95066e-10, No Iterations 1
 #################### DEBUG ~/OpenFOAM/OpenFOAM-v2006/applications/utilities/ITHACA-FV/src/ITHACA_FOMPROBLEMS/burgers/burgers.C, line 637 #################### 0.0009 0.001
Time = 0.069

DILUPBiCGStab:  Solving for Ux, Initial residual = 0.000172732, Final residual = 4.95038e-10, No Iterations 1
DILUPBiCGStab:  Solving for Uy, Initial residual = 0.000172732, Final residual = 4.95038e-10, No Iterations 1
 #################### DEBUG ~/OpenFOAM/OpenFOAM-v2006/applications/utilities/ITHACA-FV/src/ITHACA_FOMPROBLEMS/burgers/burgers.C, line 637 #################### 0.0012 0.001
Time = 0.07

DILUPBiCGStab:  Solving for Ux, Initial residual = 0.000172731, Final residual = 4.95017e-10, No Iterations 1
DILUPBiCGStab:  Solving for Uy, Initial residual = 0.000172731, Final residual = 4.95017e-10, No Iterations 1
 #################### DEBUG ~/OpenFOAM/OpenFOAM-v2006/applications/utilities/ITHACA-FV/src/ITHACA_FOMPROBLEMS/burgers/burgers.C, line 637 #################### 0.0002 0.001
Time = 0.071

DILUPBiCGStab:  Solving for Ux, Initial residual = 0.000172732, Final residual = 4.94998e-10, No Iterations 1
DILUPBiCGStab:  Solving for Uy, Initial residual = 0.000172732, Final residual = 4.94998e-10, No Iterations 1
 #################### DEBUG ~/OpenFOAM/OpenFOAM-v2006/applications/utilities/ITHACA-FV/src/ITHACA_FOMPROBLEMS/burgers/burgers.C, line 637 #################### 0.0005 0.001
Time = 0.072

DILUPBiCGStab:  Solving for Ux, Initial residual = 0.000172732, Final residual = 4.94983e-10, No Iterations 1
DILUPBiCGStab:  Solving for Uy, Initial residual = 0.000172732, Final residual = 4.94983e-10, No Iterations 1
 #################### DEBUG ~/OpenFOAM/OpenFOAM-v2006/applications/utilities/ITHACA-FV/src/ITHACA_FOMPROBLEMS/burgers/burgers.C, line 637 #################### 0.0008 0.001
Time = 0.073

DILUPBiCGStab:  Solving for Ux, Initial residual = 0.000172734, Final residual = 4.9497e-10, No Iterations 1
DILUPBiCGStab:  Solving for Uy, Initial residual = 0.000172734, Final residual = 4.9497e-10, No Iterations 1
 #################### DEBUG ~/OpenFOAM/OpenFOAM-v2006/applications/utilities/ITHACA-FV/src/ITHACA_FOMPROBLEMS/burgers/burgers.C, line 637 #################### 0.0011 0.001
Time = 0.074

DILUPBiCGStab:  Solving for Ux, Initial residual = 0.000172734, Final residual = 4.94965e-10, No Iterations 1
DILUPBiCGStab:  Solving for Uy, Initial residual = 0.000172734, Final residual = 4.94965e-10, No Iterations 1
 #################### DEBUG ~/OpenFOAM/OpenFOAM-v2006/applications/utilities/ITHACA-FV/src/ITHACA_FOMPROBLEMS/burgers/burgers.C, line 637 #################### 0.0001 0.001
Time = 0.075

DILUPBiCGStab:  Solving for Ux, Initial residual = 0.000172735, Final residual = 4.94958e-10, No Iterations 1
DILUPBiCGStab:  Solving for Uy, Initial residual = 0.000172735, Final residual = 4.94958e-10, No Iterations 1
 #################### DEBUG ~/OpenFOAM/OpenFOAM-v2006/applications/utilities/ITHACA-FV/src/ITHACA_FOMPROBLEMS/burgers/burgers.C, line 637 #################### 0.0004 0.001
Time = 0.076

DILUPBiCGStab:  Solving for Ux, Initial residual = 0.000172737, Final residual = 4.94949e-10, No Iterations 1
DILUPBiCGStab:  Solving for Uy, Initial residual = 0.000172737, Final residual = 4.94949e-10, No Iterations 1
 #################### DEBUG ~/OpenFOAM/OpenFOAM-v2006/applications/utilities/ITHACA-FV/src/ITHACA_FOMPROBLEMS/burgers/burgers.C, line 637 #################### 0.0007 0.001
Time = 0.077

DILUPBiCGStab:  Solving for Ux, Initial residual = 0.000172738, Final residual = 4.9494e-10, No Iterations 1
DILUPBiCGStab:  Solving for Uy, Initial residual = 0.000172738, Final residual = 4.9494e-10, No Iterations 1
 #################### DEBUG ~/OpenFOAM/OpenFOAM-v2006/applications/utilities/ITHACA-FV/src/ITHACA_FOMPROBLEMS/burgers/burgers.C, line 637 #################### 0.001 0.001
Time = 0.078

DILUPBiCGStab:  Solving for Ux, Initial residual = 0.000172739, Final residual = 4.9493e-10, No Iterations 1
DILUPBiCGStab:  Solving for Uy, Initial residual = 0.000172739, Final residual = 4.9493e-10, No Iterations 1
 #################### DEBUG ~/OpenFOAM/OpenFOAM-v2006/applications/utilities/ITHACA-FV/src/ITHACA_FOMPROBLEMS/burgers/burgers.C, line 637 #################### 0 0.001
Time = 0.079

DILUPBiCGStab:  Solving for Ux, Initial residual = 0.000172741, Final residual = 4.9492e-10, No Iterations 1
DILUPBiCGStab:  Solving for Uy, Initial residual = 0.000172741, Final residual = 4.9492e-10, No Iterations 1
 #################### DEBUG ~/OpenFOAM/OpenFOAM-v2006/applications/utilities/ITHACA-FV/src/ITHACA_FOMPROBLEMS/burgers/burgers.C, line 637 #################### 0.0003 0.001
Time = 0.08

DILUPBiCGStab:  Solving for Ux, Initial residual = 0.000172742, Final residual = 4.94913e-10, No Iterations 1
DILUPBiCGStab:  Solving for Uy, Initial residual = 0.000172742, Final residual = 4.94913e-10, No Iterations 1
 #################### DEBUG ~/OpenFOAM/OpenFOAM-v2006/applications/utilities/ITHACA-FV/src/ITHACA_FOMPROBLEMS/burgers/burgers.C, line 637 #################### 0.0006 0.001
Time = 0.081

DILUPBiCGStab:  Solving for Ux, Initial residual = 0.000172743, Final residual = 4.94907e-10, No Iterations 1
DILUPBiCGStab:  Solving for Uy, Initial residual = 0.000172743, Final residual = 4.94907e-10, No Iterations 1
 #################### DEBUG ~/OpenFOAM/OpenFOAM-v2006/applications/utilities/ITHACA-FV/src/ITHACA_FOMPROBLEMS/burgers/burgers.C, line 637 #################### 0.0009 0.001
Time = 0.082

DILUPBiCGStab:  Solving for Ux, Initial residual = 0.000172744, Final residual = 4.949e-10, No Iterations 1
DILUPBiCGStab:  Solving for Uy, Initial residual = 0.000172744, Final residual = 4.949e-10, No Iterations 1
 #################### DEBUG ~/OpenFOAM/OpenFOAM-v2006/applications/utilities/ITHACA-FV/src/ITHACA_FOMPROBLEMS/burgers/burgers.C, line 637 #################### 0.0012 0.001
Time = 0.083

DILUPBiCGStab:  Solving for Ux, Initial residual = 0.000172744, Final residual = 4.94888e-10, No Iterations 1
DILUPBiCGStab:  Solving for Uy, Initial residual = 0.000172744, Final residual = 4.94888e-10, No Iterations 1
 #################### DEBUG ~/OpenFOAM/OpenFOAM-v2006/applications/utilities/ITHACA-FV/src/ITHACA_FOMPROBLEMS/burgers/burgers.C, line 637 #################### 0.0002 0.001
Time = 0.084

DILUPBiCGStab:  Solving for Ux, Initial residual = 0.000172745, Final residual = 4.94876e-10, No Iterations 1
DILUPBiCGStab:  Solving for Uy, Initial residual = 0.000172745, Final residual = 4.94876e-10, No Iterations 1
 #################### DEBUG ~/OpenFOAM/OpenFOAM-v2006/applications/utilities/ITHACA-FV/src/ITHACA_FOMPROBLEMS/burgers/burgers.C, line 637 #################### 0.0005 0.001
Time = 0.085

DILUPBiCGStab:  Solving for Ux, Initial residual = 0.000172745, Final residual = 4.94865e-10, No Iterations 1
DILUPBiCGStab:  Solving for Uy, Initial residual = 0.000172745, Final residual = 4.94865e-10, No Iterations 1
 #################### DEBUG ~/OpenFOAM/OpenFOAM-v2006/applications/utilities/ITHACA-FV/src/ITHACA_FOMPROBLEMS/burgers/burgers.C, line 637 #################### 0.0008 0.001
Time = 0.086

DILUPBiCGStab:  Solving for Ux, Initial residual = 0.000172745, Final residual = 4.94854e-10, No Iterations 1
DILUPBiCGStab:  Solving for Uy, Initial residual = 0.000172745, Final residual = 4.94854e-10, No Iterations 1
 #################### DEBUG ~/OpenFOAM/OpenFOAM-v2006/applications/utilities/ITHACA-FV/src/ITHACA_FOMPROBLEMS/burgers/burgers.C, line 637 #################### 0.0011 0.001
Time = 0.087

DILUPBiCGStab:  Solving for Ux, Initial residual = 0.000172745, Final residual = 4.9484e-10, No Iterations 1
DILUPBiCGStab:  Solving for Uy, Initial residual = 0.000172745, Final residual = 4.9484e-10, No Iterations 1
 #################### DEBUG ~/OpenFOAM/OpenFOAM-v2006/applications/utilities/ITHACA-FV/src/ITHACA_FOMPROBLEMS/burgers/burgers.C, line 637 #################### 0.0001 0.001
Time = 0.088

DILUPBiCGStab:  Solving for Ux, Initial residual = 0.000172744, Final residual = 4.94823e-10, No Iterations 1
DILUPBiCGStab:  Solving for Uy, Initial residual = 0.000172744, Final residual = 4.94823e-10, No Iterations 1
 #################### DEBUG ~/OpenFOAM/OpenFOAM-v2006/applications/utilities/ITHACA-FV/src/ITHACA_FOMPROBLEMS/burgers/burgers.C, line 637 #################### 0.0004 0.001
Time = 0.089

DILUPBiCGStab:  Solving for Ux, Initial residual = 0.000172742, Final residual = 4.94803e-10, No Iterations 1
DILUPBiCGStab:  Solving for Uy, Initial residual = 0.000172742, Final residual = 4.94803e-10, No Iterations 1
 #################### DEBUG ~/OpenFOAM/OpenFOAM-v2006/applications/utilities/ITHACA-FV/src/ITHACA_FOMPROBLEMS/burgers/burgers.C, line 637 #################### 0.0007 0.001
Time = 0.09

DILUPBiCGStab:  Solving for Ux, Initial residual = 0.000172742, Final residual = 4.94782e-10, No Iterations 1
DILUPBiCGStab:  Solving for Uy, Initial residual = 0.000172742, Final residual = 4.94782e-10, No Iterations 1
 #################### DEBUG ~/OpenFOAM/OpenFOAM-v2006/applications/utilities/ITHACA-FV/src/ITHACA_FOMPROBLEMS/burgers/burgers.C, line 637 #################### 0.001 0.001
Time = 0.091

DILUPBiCGStab:  Solving for Ux, Initial residual = 0.000172741, Final residual = 4.94763e-10, No Iterations 1
DILUPBiCGStab:  Solving for Uy, Initial residual = 0.000172741, Final residual = 4.94763e-10, No Iterations 1
 #################### DEBUG ~/OpenFOAM/OpenFOAM-v2006/applications/utilities/ITHACA-FV/src/ITHACA_FOMPROBLEMS/burgers/burgers.C, line 637 #################### 0.0013 0.001
Time = 0.092

DILUPBiCGStab:  Solving for Ux, Initial residual = 0.000172739, Final residual = 4.94741e-10, No Iterations 1
DILUPBiCGStab:  Solving for Uy, Initial residual = 0.000172739, Final residual = 4.94741e-10, No Iterations 1
 #################### DEBUG ~/OpenFOAM/OpenFOAM-v2006/applications/utilities/ITHACA-FV/src/ITHACA_FOMPROBLEMS/burgers/burgers.C, line 637 #################### 0.0003 0.001
Time = 0.093

DILUPBiCGStab:  Solving for Ux, Initial residual = 0.000172737, Final residual = 4.94716e-10, No Iterations 1
DILUPBiCGStab:  Solving for Uy, Initial residual = 0.000172737, Final residual = 4.94716e-10, No Iterations 1
 #################### DEBUG ~/OpenFOAM/OpenFOAM-v2006/applications/utilities/ITHACA-FV/src/ITHACA_FOMPROBLEMS/burgers/burgers.C, line 637 #################### 0.0006 0.001
Time = 0.094

DILUPBiCGStab:  Solving for Ux, Initial residual = 0.000172735, Final residual = 4.94691e-10, No Iterations 1
DILUPBiCGStab:  Solving for Uy, Initial residual = 0.000172735, Final residual = 4.94691e-10, No Iterations 1
 #################### DEBUG ~/OpenFOAM/OpenFOAM-v2006/applications/utilities/ITHACA-FV/src/ITHACA_FOMPROBLEMS/burgers/burgers.C, line 637 #################### 0.0009 0.001
Time = 0.095

DILUPBiCGStab:  Solving for Ux, Initial residual = 0.000172732, Final residual = 4.94665e-10, No Iterations 1
DILUPBiCGStab:  Solving for Uy, Initial residual = 0.000172732, Final residual = 4.94665e-10, No Iterations 1
 #################### DEBUG ~/OpenFOAM/OpenFOAM-v2006/applications/utilities/ITHACA-FV/src/ITHACA_FOMPROBLEMS/burgers/burgers.C, line 637 #################### 0.0012 0.001
Time = 0.096

DILUPBiCGStab:  Solving for Ux, Initial residual = 0.000172729, Final residual = 4.94637e-10, No Iterations 1
DILUPBiCGStab:  Solving for Uy, Initial residual = 0.000172729, Final residual = 4.94637e-10, No Iterations 1
 #################### DEBUG ~/OpenFOAM/OpenFOAM-v2006/applications/utilities/ITHACA-FV/src/ITHACA_FOMPROBLEMS/burgers/burgers.C, line 637 #################### 0.0002 0.001
Time = 0.097

DILUPBiCGStab:  Solving for Ux, Initial residual = 0.000172725, Final residual = 4.94612e-10, No Iterations 1
DILUPBiCGStab:  Solving for Uy, Initial residual = 0.000172725, Final residual = 4.94612e-10, No Iterations 1
 #################### DEBUG ~/OpenFOAM/OpenFOAM-v2006/applications/utilities/ITHACA-FV/src/ITHACA_FOMPROBLEMS/burgers/burgers.C, line 637 #################### 0.0005 0.001
Time = 0.098

DILUPBiCGStab:  Solving for Ux, Initial residual = 0.000172722, Final residual = 4.94584e-10, No Iterations 1
DILUPBiCGStab:  Solving for Uy, Initial residual = 0.000172722, Final residual = 4.94584e-10, No Iterations 1
 #################### DEBUG ~/OpenFOAM/OpenFOAM-v2006/applications/utilities/ITHACA-FV/src/ITHACA_FOMPROBLEMS/burgers/burgers.C, line 637 #################### 0.0008 0.001
Time = 0.099

DILUPBiCGStab:  Solving for Ux, Initial residual = 0.000172718, Final residual = 4.94554e-10, No Iterations 1
DILUPBiCGStab:  Solving for Uy, Initial residual = 0.000172718, Final residual = 4.94554e-10, No Iterations 1
 #################### DEBUG ~/OpenFOAM/OpenFOAM-v2006/applications/utilities/ITHACA-FV/src/ITHACA_FOMPROBLEMS/burgers/burgers.C, line 637 #################### 0.0011 0.001
Time = 0.1

DILUPBiCGStab:  Solving for Ux, Initial residual = 0.000172714, Final residual = 4.94525e-10, No Iterations 1
DILUPBiCGStab:  Solving for Uy, Initial residual = 0.000172714, Final residual = 4.94525e-10, No Iterations 1
 #################### DEBUG ~/OpenFOAM/OpenFOAM-v2006/applications/utilities/ITHACA-FV/src/ITHACA_FOMPROBLEMS/burgers/burgers.C, line 637 #################### 0.0001 0.001
Time = 0.101

DILUPBiCGStab:  Solving for Ux, Initial residual = 0.000172709, Final residual = 4.94495e-10, No Iterations 1
DILUPBiCGStab:  Solving for Uy, Initial residual = 0.000172709, Final residual = 4.94495e-10, No Iterations 1
 #################### DEBUG ~/OpenFOAM/OpenFOAM-v2006/applications/utilities/ITHACA-FV/src/ITHACA_FOMPROBLEMS/burgers/burgers.C, line 637 #################### 0.0004 0.001
Time = 0.102

DILUPBiCGStab:  Solving for Ux, Initial residual = 0.000172706, Final residual = 4.9448e-10, No Iterations 1
DILUPBiCGStab:  Solving for Uy, Initial residual = 0.000172706, Final residual = 4.9448e-10, No Iterations 1
 #################### DEBUG ~/OpenFOAM/OpenFOAM-v2006/applications/utilities/ITHACA-FV/src/ITHACA_FOMPROBLEMS/burgers/burgers.C, line 637 #################### 0.0007 0.001
Time = 0.103

DILUPBiCGStab:  Solving for Ux, Initial residual = 0.000172703, Final residual = 4.94471e-10, No Iterations 1
DILUPBiCGStab:  Solving for Uy, Initial residual = 0.000172703, Final residual = 4.94471e-10, No Iterations 1
 #################### DEBUG ~/OpenFOAM/OpenFOAM-v2006/applications/utilities/ITHACA-FV/src/ITHACA_FOMPROBLEMS/burgers/burgers.C, line 637 #################### 0.001 0.001
Time = 0.104

DILUPBiCGStab:  Solving for Ux, Initial residual = 0.000172702, Final residual = 4.94467e-10, No Iterations 1
DILUPBiCGStab:  Solving for Uy, Initial residual = 0.000172702, Final residual = 4.94467e-10, No Iterations 1
 #################### DEBUG ~/OpenFOAM/OpenFOAM-v2006/applications/utilities/ITHACA-FV/src/ITHACA_FOMPROBLEMS/burgers/burgers.C, line 637 #################### 0.0013 0.001
Time = 0.105

DILUPBiCGStab:  Solving for Ux, Initial residual = 0.000172701, Final residual = 4.94469e-10, No Iterations 1
DILUPBiCGStab:  Solving for Uy, Initial residual = 0.000172701, Final residual = 4.94469e-10, No Iterations 1
 #################### DEBUG ~/OpenFOAM/OpenFOAM-v2006/applications/utilities/ITHACA-FV/src/ITHACA_FOMPROBLEMS/burgers/burgers.C, line 637 #################### 0.0003 0.001
Time = 0.106

DILUPBiCGStab:  Solving for Ux, Initial residual = 0.000172701, Final residual = 4.94471e-10, No Iterations 1
DILUPBiCGStab:  Solving for Uy, Initial residual = 0.000172701, Final residual = 4.94471e-10, No Iterations 1
 #################### DEBUG ~/OpenFOAM/OpenFOAM-v2006/applications/utilities/ITHACA-FV/src/ITHACA_FOMPROBLEMS/burgers/burgers.C, line 637 #################### 0.0006 0.001
Time = 0.107

DILUPBiCGStab:  Solving for Ux, Initial residual = 0.000172702, Final residual = 4.94475e-10, No Iterations 1
DILUPBiCGStab:  Solving for Uy, Initial residual = 0.000172702, Final residual = 4.94475e-10, No Iterations 1
 #################### DEBUG ~/OpenFOAM/OpenFOAM-v2006/applications/utilities/ITHACA-FV/src/ITHACA_FOMPROBLEMS/burgers/burgers.C, line 637 #################### 0.0009 0.001
Time = 0.108

DILUPBiCGStab:  Solving for Ux, Initial residual = 0.000172702, Final residual = 4.94483e-10, No Iterations 1
DILUPBiCGStab:  Solving for Uy, Initial residual = 0.000172702, Final residual = 4.94483e-10, No Iterations 1
 #################### DEBUG ~/OpenFOAM/OpenFOAM-v2006/applications/utilities/ITHACA-FV/src/ITHACA_FOMPROBLEMS/burgers/burgers.C, line 637 #################### 0.0012 0.001
Time = 0.109

DILUPBiCGStab:  Solving for Ux, Initial residual = 0.000172704, Final residual = 4.9449e-10, No Iterations 1
DILUPBiCGStab:  Solving for Uy, Initial residual = 0.000172704, Final residual = 4.9449e-10, No Iterations 1
 #################### DEBUG ~/OpenFOAM/OpenFOAM-v2006/applications/utilities/ITHACA-FV/src/ITHACA_FOMPROBLEMS/burgers/burgers.C, line 637 #################### 0.0002 0.001
Time = 0.11

DILUPBiCGStab:  Solving for Ux, Initial residual = 0.000172705, Final residual = 4.94495e-10, No Iterations 1
DILUPBiCGStab:  Solving for Uy, Initial residual = 0.000172705, Final residual = 4.94495e-10, No Iterations 1
 #################### DEBUG ~/OpenFOAM/OpenFOAM-v2006/applications/utilities/ITHACA-FV/src/ITHACA_FOMPROBLEMS/burgers/burgers.C, line 637 #################### 0.0005 0.001
Time = 0.111

DILUPBiCGStab:  Solving for Ux, Initial residual = 0.000172705, Final residual = 4.94501e-10, No Iterations 1
DILUPBiCGStab:  Solving for Uy, Initial residual = 0.000172705, Final residual = 4.94501e-10, No Iterations 1
 #################### DEBUG ~/OpenFOAM/OpenFOAM-v2006/applications/utilities/ITHACA-FV/src/ITHACA_FOMPROBLEMS/burgers/burgers.C, line 637 #################### 0.0008 0.001
Time = 0.112

DILUPBiCGStab:  Solving for Ux, Initial residual = 0.000172705, Final residual = 4.94509e-10, No Iterations 1
DILUPBiCGStab:  Solving for Uy, Initial residual = 0.000172705, Final residual = 4.94509e-10, No Iterations 1
 #################### DEBUG ~/OpenFOAM/OpenFOAM-v2006/applications/utilities/ITHACA-FV/src/ITHACA_FOMPROBLEMS/burgers/burgers.C, line 637 #################### 0.0011 0.001
Time = 0.113

DILUPBiCGStab:  Solving for Ux, Initial residual = 0.000172707, Final residual = 4.94519e-10, No Iterations 1
DILUPBiCGStab:  Solving for Uy, Initial residual = 0.000172707, Final residual = 4.94519e-10, No Iterations 1
 #################### DEBUG ~/OpenFOAM/OpenFOAM-v2006/applications/utilities/ITHACA-FV/src/ITHACA_FOMPROBLEMS/burgers/burgers.C, line 637 #################### 0.0001 0.001
Time = 0.114

DILUPBiCGStab:  Solving for Ux, Initial residual = 0.000172707, Final residual = 4.94526e-10, No Iterations 1
DILUPBiCGStab:  Solving for Uy, Initial residual = 0.000172707, Final residual = 4.94526e-10, No Iterations 1
 #################### DEBUG ~/OpenFOAM/OpenFOAM-v2006/applications/utilities/ITHACA-FV/src/ITHACA_FOMPROBLEMS/burgers/burgers.C, line 637 #################### 0.0004 0.001
Time = 0.115

DILUPBiCGStab:  Solving for Ux, Initial residual = 0.000172708, Final residual = 4.94531e-10, No Iterations 1
DILUPBiCGStab:  Solving for Uy, Initial residual = 0.000172708, Final residual = 4.94531e-10, No Iterations 1
 #################### DEBUG ~/OpenFOAM/OpenFOAM-v2006/applications/utilities/ITHACA-FV/src/ITHACA_FOMPROBLEMS/burgers/burgers.C, line 637 #################### 0.0007 0.001
Time = 0.116

DILUPBiCGStab:  Solving for Ux, Initial residual = 0.000172708, Final residual = 4.9454e-10, No Iterations 1
DILUPBiCGStab:  Solving for Uy, Initial residual = 0.000172708, Final residual = 4.9454e-10, No Iterations 1
 #################### DEBUG ~/OpenFOAM/OpenFOAM-v2006/applications/utilities/ITHACA-FV/src/ITHACA_FOMPROBLEMS/burgers/burgers.C, line 637 #################### 0.001 0.001
Time = 0.117

DILUPBiCGStab:  Solving for Ux, Initial residual = 0.000172707, Final residual = 4.94546e-10, No Iterations 1
DILUPBiCGStab:  Solving for Uy, Initial residual = 0.000172707, Final residual = 4.94546e-10, No Iterations 1
 #################### DEBUG ~/OpenFOAM/OpenFOAM-v2006/applications/utilities/ITHACA-FV/src/ITHACA_FOMPROBLEMS/burgers/burgers.C, line 637 #################### 0.0013 0.001
Time = 0.118

DILUPBiCGStab:  Solving for Ux, Initial residual = 0.000172708, Final residual = 4.9455e-10, No Iterations 1
DILUPBiCGStab:  Solving for Uy, Initial residual = 0.000172708, Final residual = 4.9455e-10, No Iterations 1
 #################### DEBUG ~/OpenFOAM/OpenFOAM-v2006/applications/utilities/ITHACA-FV/src/ITHACA_FOMPROBLEMS/burgers/burgers.C, line 637 #################### 0.0003 0.001
Time = 0.119

DILUPBiCGStab:  Solving for Ux, Initial residual = 0.000172709, Final residual = 4.9455e-10, No Iterations 1
DILUPBiCGStab:  Solving for Uy, Initial residual = 0.000172709, Final residual = 4.9455e-10, No Iterations 1
 #################### DEBUG ~/OpenFOAM/OpenFOAM-v2006/applications/utilities/ITHACA-FV/src/ITHACA_FOMPROBLEMS/burgers/burgers.C, line 637 #################### 0.0006 0.001
Time = 0.12

DILUPBiCGStab:  Solving for Ux, Initial residual = 0.000172709, Final residual = 4.94548e-10, No Iterations 1
DILUPBiCGStab:  Solving for Uy, Initial residual = 0.000172709, Final residual = 4.94548e-10, No Iterations 1
 #################### DEBUG ~/OpenFOAM/OpenFOAM-v2006/applications/utilities/ITHACA-FV/src/ITHACA_FOMPROBLEMS/burgers/burgers.C, line 637 #################### 0.0009 0.001
Time = 0.121

DILUPBiCGStab:  Solving for Ux, Initial residual = 0.000172709, Final residual = 4.94545e-10, No Iterations 1
DILUPBiCGStab:  Solving for Uy, Initial residual = 0.000172709, Final residual = 4.94545e-10, No Iterations 1
 #################### DEBUG ~/OpenFOAM/OpenFOAM-v2006/applications/utilities/ITHACA-FV/src/ITHACA_FOMPROBLEMS/burgers/burgers.C, line 637 #################### 0.0012 0.001
Time = 0.122

DILUPBiCGStab:  Solving for Ux, Initial residual = 0.000172708, Final residual = 4.94546e-10, No Iterations 1
DILUPBiCGStab:  Solving for Uy, Initial residual = 0.000172708, Final residual = 4.94546e-10, No Iterations 1
 #################### DEBUG ~/OpenFOAM/OpenFOAM-v2006/applications/utilities/ITHACA-FV/src/ITHACA_FOMPROBLEMS/burgers/burgers.C, line 637 #################### 0.0002 0.001
Time = 0.123

DILUPBiCGStab:  Solving for Ux, Initial residual = 0.000172707, Final residual = 4.94543e-10, No Iterations 1
DILUPBiCGStab:  Solving for Uy, Initial residual = 0.000172707, Final residual = 4.94543e-10, No Iterations 1
 #################### DEBUG ~/OpenFOAM/OpenFOAM-v2006/applications/utilities/ITHACA-FV/src/ITHACA_FOMPROBLEMS/burgers/burgers.C, line 637 #################### 0.0005 0.001
Time = 0.124

DILUPBiCGStab:  Solving for Ux, Initial residual = 0.000172706, Final residual = 4.94537e-10, No Iterations 1
DILUPBiCGStab:  Solving for Uy, Initial residual = 0.000172706, Final residual = 4.94537e-10, No Iterations 1
 #################### DEBUG ~/OpenFOAM/OpenFOAM-v2006/applications/utilities/ITHACA-FV/src/ITHACA_FOMPROBLEMS/burgers/burgers.C, line 637 #################### 0.0008 0.001
Time = 0.125

DILUPBiCGStab:  Solving for Ux, Initial residual = 0.000172705, Final residual = 4.94532e-10, No Iterations 1
DILUPBiCGStab:  Solving for Uy, Initial residual = 0.000172705, Final residual = 4.94532e-10, No Iterations 1
 #################### DEBUG ~/OpenFOAM/OpenFOAM-v2006/applications/utilities/ITHACA-FV/src/ITHACA_FOMPROBLEMS/burgers/burgers.C, line 637 #################### 0.0011 0.001
Time = 0.126

DILUPBiCGStab:  Solving for Ux, Initial residual = 0.000172704, Final residual = 4.94524e-10, No Iterations 1
DILUPBiCGStab:  Solving for Uy, Initial residual = 0.000172704, Final residual = 4.94524e-10, No Iterations 1
 #################### DEBUG ~/OpenFOAM/OpenFOAM-v2006/applications/utilities/ITHACA-FV/src/ITHACA_FOMPROBLEMS/burgers/burgers.C, line 637 #################### 0.0001 0.001
Time = 0.127

DILUPBiCGStab:  Solving for Ux, Initial residual = 0.000172703, Final residual = 4.94516e-10, No Iterations 1
DILUPBiCGStab:  Solving for Uy, Initial residual = 0.000172703, Final residual = 4.94516e-10, No Iterations 1
 #################### DEBUG ~/OpenFOAM/OpenFOAM-v2006/applications/utilities/ITHACA-FV/src/ITHACA_FOMPROBLEMS/burgers/burgers.C, line 637 #################### 0.0004 0.001
Time = 0.128

DILUPBiCGStab:  Solving for Ux, Initial residual = 0.0001727, Final residual = 4.94506e-10, No Iterations 1
DILUPBiCGStab:  Solving for Uy, Initial residual = 0.0001727, Final residual = 4.94506e-10, No Iterations 1
 #################### DEBUG ~/OpenFOAM/OpenFOAM-v2006/applications/utilities/ITHACA-FV/src/ITHACA_FOMPROBLEMS/burgers/burgers.C, line 637 #################### 0.0007 0.001
Time = 0.129

DILUPBiCGStab:  Solving for Ux, Initial residual = 0.000172698, Final residual = 4.94493e-10, No Iterations 1
DILUPBiCGStab:  Solving for Uy, Initial residual = 0.000172698, Final residual = 4.94493e-10, No Iterations 1
 #################### DEBUG ~/OpenFOAM/OpenFOAM-v2006/applications/utilities/ITHACA-FV/src/ITHACA_FOMPROBLEMS/burgers/burgers.C, line 637 #################### 0.001 0.001
Time = 0.13

DILUPBiCGStab:  Solving for Ux, Initial residual = 0.000172695, Final residual = 4.94477e-10, No Iterations 1
DILUPBiCGStab:  Solving for Uy, Initial residual = 0.000172695, Final residual = 4.94477e-10, No Iterations 1
 #################### DEBUG ~/OpenFOAM/OpenFOAM-v2006/applications/utilities/ITHACA-FV/src/ITHACA_FOMPROBLEMS/burgers/burgers.C, line 637 #################### 0.0013 0.001
Time = 0.131

DILUPBiCGStab:  Solving for Ux, Initial residual = 0.000172691, Final residual = 4.94458e-10, No Iterations 1
DILUPBiCGStab:  Solving for Uy, Initial residual = 0.000172691, Final residual = 4.94458e-10, No Iterations 1
 #################### DEBUG ~/OpenFOAM/OpenFOAM-v2006/applications/utilities/ITHACA-FV/src/ITHACA_FOMPROBLEMS/burgers/burgers.C, line 637 #################### 0.0003 0.001
Time = 0.132

DILUPBiCGStab:  Solving for Ux, Initial residual = 0.000172688, Final residual = 4.94442e-10, No Iterations 1
DILUPBiCGStab:  Solving for Uy, Initial residual = 0.000172688, Final residual = 4.94442e-10, No Iterations 1
 #################### DEBUG ~/OpenFOAM/OpenFOAM-v2006/applications/utilities/ITHACA-FV/src/ITHACA_FOMPROBLEMS/burgers/burgers.C, line 637 #################### 0.0006 0.001
Time = 0.133

DILUPBiCGStab:  Solving for Ux, Initial residual = 0.000172686, Final residual = 4.94425e-10, No Iterations 1
DILUPBiCGStab:  Solving for Uy, Initial residual = 0.000172686, Final residual = 4.94425e-10, No Iterations 1
 #################### DEBUG ~/OpenFOAM/OpenFOAM-v2006/applications/utilities/ITHACA-FV/src/ITHACA_FOMPROBLEMS/burgers/burgers.C, line 637 #################### 0.0009 0.001
Time = 0.134

DILUPBiCGStab:  Solving for Ux, Initial residual = 0.000172683, Final residual = 4.94404e-10, No Iterations 1
DILUPBiCGStab:  Solving for Uy, Initial residual = 0.000172683, Final residual = 4.94404e-10, No Iterations 1
 #################### DEBUG ~/OpenFOAM/OpenFOAM-v2006/applications/utilities/ITHACA-FV/src/ITHACA_FOMPROBLEMS/burgers/burgers.C, line 637 #################### 0.0012 0.001
Time = 0.135

DILUPBiCGStab:  Solving for Ux, Initial residual = 0.000172679, Final residual = 4.9438e-10, No Iterations 1
DILUPBiCGStab:  Solving for Uy, Initial residual = 0.000172679, Final residual = 4.9438e-10, No Iterations 1
 #################### DEBUG ~/OpenFOAM/OpenFOAM-v2006/applications/utilities/ITHACA-FV/src/ITHACA_FOMPROBLEMS/burgers/burgers.C, line 637 #################### 0.0002 0.001
Time = 0.136

DILUPBiCGStab:  Solving for Ux, Initial residual = 0.000172675, Final residual = 4.94355e-10, No Iterations 1
DILUPBiCGStab:  Solving for Uy, Initial residual = 0.000172675, Final residual = 4.94355e-10, No Iterations 1
 #################### DEBUG ~/OpenFOAM/OpenFOAM-v2006/applications/utilities/ITHACA-FV/src/ITHACA_FOMPROBLEMS/burgers/burgers.C, line 637 #################### 0.0005 0.001
Time = 0.137

DILUPBiCGStab:  Solving for Ux, Initial residual = 0.000172672, Final residual = 4.94332e-10, No Iterations 1
DILUPBiCGStab:  Solving for Uy, Initial residual = 0.000172672, Final residual = 4.94332e-10, No Iterations 1
 #################### DEBUG ~/OpenFOAM/OpenFOAM-v2006/applications/utilities/ITHACA-FV/src/ITHACA_FOMPROBLEMS/burgers/burgers.C, line 637 #################### 0.0008 0.001
Time = 0.138

DILUPBiCGStab:  Solving for Ux, Initial residual = 0.00017267, Final residual = 4.94321e-10, No Iterations 1
DILUPBiCGStab:  Solving for Uy, Initial residual = 0.00017267, Final residual = 4.94321e-10, No Iterations 1
 #################### DEBUG ~/OpenFOAM/OpenFOAM-v2006/applications/utilities/ITHACA-FV/src/ITHACA_FOMPROBLEMS/burgers/burgers.C, line 637 #################### 0.0011 0.001
Time = 0.139

DILUPBiCGStab:  Solving for Ux, Initial residual = 0.000172669, Final residual = 4.94314e-10, No Iterations 1
DILUPBiCGStab:  Solving for Uy, Initial residual = 0.000172669, Final residual = 4.94314e-10, No Iterations 1
 #################### DEBUG ~/OpenFOAM/OpenFOAM-v2006/applications/utilities/ITHACA-FV/src/ITHACA_FOMPROBLEMS/burgers/burgers.C, line 637 #################### 0.0001 0.001
Time = 0.14

DILUPBiCGStab:  Solving for Ux, Initial residual = 0.000172668, Final residual = 4.9431e-10, No Iterations 1
DILUPBiCGStab:  Solving for Uy, Initial residual = 0.000172668, Final residual = 4.9431e-10, No Iterations 1
 #################### DEBUG ~/OpenFOAM/OpenFOAM-v2006/applications/utilities/ITHACA-FV/src/ITHACA_FOMPROBLEMS/burgers/burgers.C, line 637 #################### 0.0004 0.001
Time = 0.141

DILUPBiCGStab:  Solving for Ux, Initial residual = 0.000172668, Final residual = 4.94316e-10, No Iterations 1
DILUPBiCGStab:  Solving for Uy, Initial residual = 0.000172668, Final residual = 4.94316e-10, No Iterations 1
 #################### DEBUG ~/OpenFOAM/OpenFOAM-v2006/applications/utilities/ITHACA-FV/src/ITHACA_FOMPROBLEMS/burgers/burgers.C, line 637 #################### 0.0007 0.001
Time = 0.142

DILUPBiCGStab:  Solving for Ux, Initial residual = 0.000172667, Final residual = 4.9432e-10, No Iterations 1
DILUPBiCGStab:  Solving for Uy, Initial residual = 0.000172667, Final residual = 4.9432e-10, No Iterations 1
 #################### DEBUG ~/OpenFOAM/OpenFOAM-v2006/applications/utilities/ITHACA-FV/src/ITHACA_FOMPROBLEMS/burgers/burgers.C, line 637 #################### 0.001 0.001
Time = 0.143

DILUPBiCGStab:  Solving for Ux, Initial residual = 0.000172668, Final residual = 4.94323e-10, No Iterations 1
DILUPBiCGStab:  Solving for Uy, Initial residual = 0.000172668, Final residual = 4.94323e-10, No Iterations 1
 #################### DEBUG ~/OpenFOAM/OpenFOAM-v2006/applications/utilities/ITHACA-FV/src/ITHACA_FOMPROBLEMS/burgers/burgers.C, line 637 #################### 0.0013 0.001
Time = 0.144

DILUPBiCGStab:  Solving for Ux, Initial residual = 0.000172669, Final residual = 4.94329e-10, No Iterations 1
DILUPBiCGStab:  Solving for Uy, Initial residual = 0.000172669, Final residual = 4.94329e-10, No Iterations 1
 #################### DEBUG ~/OpenFOAM/OpenFOAM-v2006/applications/utilities/ITHACA-FV/src/ITHACA_FOMPROBLEMS/burgers/burgers.C, line 637 #################### 0.0003 0.001
Time = 0.145

DILUPBiCGStab:  Solving for Ux, Initial residual = 0.00017267, Final residual = 4.94332e-10, No Iterations 1
DILUPBiCGStab:  Solving for Uy, Initial residual = 0.00017267, Final residual = 4.94332e-10, No Iterations 1
 #################### DEBUG ~/OpenFOAM/OpenFOAM-v2006/applications/utilities/ITHACA-FV/src/ITHACA_FOMPROBLEMS/burgers/burgers.C, line 637 #################### 0.0006 0.001
Time = 0.146

DILUPBiCGStab:  Solving for Ux, Initial residual = 0.00017267, Final residual = 4.94332e-10, No Iterations 1
DILUPBiCGStab:  Solving for Uy, Initial residual = 0.00017267, Final residual = 4.94332e-10, No Iterations 1
 #################### DEBUG ~/OpenFOAM/OpenFOAM-v2006/applications/utilities/ITHACA-FV/src/ITHACA_FOMPROBLEMS/burgers/burgers.C, line 637 #################### 0.0009 0.001
Time = 0.147

DILUPBiCGStab:  Solving for Ux, Initial residual = 0.00017267, Final residual = 4.94338e-10, No Iterations 1
DILUPBiCGStab:  Solving for Uy, Initial residual = 0.00017267, Final residual = 4.94338e-10, No Iterations 1
 #################### DEBUG ~/OpenFOAM/OpenFOAM-v2006/applications/utilities/ITHACA-FV/src/ITHACA_FOMPROBLEMS/burgers/burgers.C, line 637 #################### 0.0012 0.001
Time = 0.148

DILUPBiCGStab:  Solving for Ux, Initial residual = 0.00017267, Final residual = 4.94349e-10, No Iterations 1
DILUPBiCGStab:  Solving for Uy, Initial residual = 0.00017267, Final residual = 4.94349e-10, No Iterations 1
 #################### DEBUG ~/OpenFOAM/OpenFOAM-v2006/applications/utilities/ITHACA-FV/src/ITHACA_FOMPROBLEMS/burgers/burgers.C, line 637 #################### 0.0002 0.001
Time = 0.149

DILUPBiCGStab:  Solving for Ux, Initial residual = 0.000172671, Final residual = 4.9436e-10, No Iterations 1
DILUPBiCGStab:  Solving for Uy, Initial residual = 0.000172671, Final residual = 4.9436e-10, No Iterations 1
 #################### DEBUG ~/OpenFOAM/OpenFOAM-v2006/applications/utilities/ITHACA-FV/src/ITHACA_FOMPROBLEMS/burgers/burgers.C, line 637 #################### 0.0005 0.001
Time = 0.15

DILUPBiCGStab:  Solving for Ux, Initial residual = 0.000172671, Final residual = 4.94369e-10, No Iterations 1
DILUPBiCGStab:  Solving for Uy, Initial residual = 0.000172671, Final residual = 4.94369e-10, No Iterations 1
 #################### DEBUG ~/OpenFOAM/OpenFOAM-v2006/applications/utilities/ITHACA-FV/src/ITHACA_FOMPROBLEMS/burgers/burgers.C, line 637 #################### 0.0008 0.001
Time = 0.151

DILUPBiCGStab:  Solving for Ux, Initial residual = 0.000172671, Final residual = 4.94375e-10, No Iterations 1
DILUPBiCGStab:  Solving for Uy, Initial residual = 0.000172671, Final residual = 4.94375e-10, No Iterations 1
 #################### DEBUG ~/OpenFOAM/OpenFOAM-v2006/applications/utilities/ITHACA-FV/src/ITHACA_FOMPROBLEMS/burgers/burgers.C, line 637 #################### 0.0011 0.001
Time = 0.152

DILUPBiCGStab:  Solving for Ux, Initial residual = 0.000172671, Final residual = 4.94377e-10, No Iterations 1
DILUPBiCGStab:  Solving for Uy, Initial residual = 0.000172671, Final residual = 4.94377e-10, No Iterations 1
 #################### DEBUG ~/OpenFOAM/OpenFOAM-v2006/applications/utilities/ITHACA-FV/src/ITHACA_FOMPROBLEMS/burgers/burgers.C, line 637 #################### 0.0001 0.001
Time = 0.153

DILUPBiCGStab:  Solving for Ux, Initial residual = 0.00017267, Final residual = 4.94381e-10, No Iterations 1
DILUPBiCGStab:  Solving for Uy, Initial residual = 0.00017267, Final residual = 4.94381e-10, No Iterations 1
 #################### DEBUG ~/OpenFOAM/OpenFOAM-v2006/applications/utilities/ITHACA-FV/src/ITHACA_FOMPROBLEMS/burgers/burgers.C, line 637 #################### 0.0004 0.001
Time = 0.154

DILUPBiCGStab:  Solving for Ux, Initial residual = 0.00017267, Final residual = 4.94384e-10, No Iterations 1
DILUPBiCGStab:  Solving for Uy, Initial residual = 0.00017267, Final residual = 4.94384e-10, No Iterations 1
 #################### DEBUG ~/OpenFOAM/OpenFOAM-v2006/applications/utilities/ITHACA-FV/src/ITHACA_FOMPROBLEMS/burgers/burgers.C, line 637 #################### 0.0007 0.001
Time = 0.155

DILUPBiCGStab:  Solving for Ux, Initial residual = 0.00017267, Final residual = 4.94387e-10, No Iterations 1
DILUPBiCGStab:  Solving for Uy, Initial residual = 0.00017267, Final residual = 4.94387e-10, No Iterations 1
 #################### DEBUG ~/OpenFOAM/OpenFOAM-v2006/applications/utilities/ITHACA-FV/src/ITHACA_FOMPROBLEMS/burgers/burgers.C, line 637 #################### 0.001 0.001
Time = 0.156

DILUPBiCGStab:  Solving for Ux, Initial residual = 0.000172671, Final residual = 4.94387e-10, No Iterations 1
DILUPBiCGStab:  Solving for Uy, Initial residual = 0.000172671, Final residual = 4.94387e-10, No Iterations 1
 #################### DEBUG ~/OpenFOAM/OpenFOAM-v2006/applications/utilities/ITHACA-FV/src/ITHACA_FOMPROBLEMS/burgers/burgers.C, line 637 #################### 0.0013 0.001
Time = 0.157

DILUPBiCGStab:  Solving for Ux, Initial residual = 0.000172671, Final residual = 4.94385e-10, No Iterations 1
DILUPBiCGStab:  Solving for Uy, Initial residual = 0.000172671, Final residual = 4.94385e-10, No Iterations 1
 #################### DEBUG ~/OpenFOAM/OpenFOAM-v2006/applications/utilities/ITHACA-FV/src/ITHACA_FOMPROBLEMS/burgers/burgers.C, line 637 #################### 0.0003 0.001
Time = 0.158

DILUPBiCGStab:  Solving for Ux, Initial residual = 0.00017267, Final residual = 4.94379e-10, No Iterations 1
DILUPBiCGStab:  Solving for Uy, Initial residual = 0.00017267, Final residual = 4.94379e-10, No Iterations 1
 #################### DEBUG ~/OpenFOAM/OpenFOAM-v2006/applications/utilities/ITHACA-FV/src/ITHACA_FOMPROBLEMS/burgers/burgers.C, line 637 #################### 0.0006 0.001
Time = 0.159

DILUPBiCGStab:  Solving for Ux, Initial residual = 0.000172669, Final residual = 4.94369e-10, No Iterations 1
DILUPBiCGStab:  Solving for Uy, Initial residual = 0.000172669, Final residual = 4.94369e-10, No Iterations 1
 #################### DEBUG ~/OpenFOAM/OpenFOAM-v2006/applications/utilities/ITHACA-FV/src/ITHACA_FOMPROBLEMS/burgers/burgers.C, line 637 #################### 0.0009 0.001
Time = 0.16

DILUPBiCGStab:  Solving for Ux, Initial residual = 0.000172667, Final residual = 4.94361e-10, No Iterations 1
DILUPBiCGStab:  Solving for Uy, Initial residual = 0.000172667, Final residual = 4.94361e-10, No Iterations 1
 #################### DEBUG ~/OpenFOAM/OpenFOAM-v2006/applications/utilities/ITHACA-FV/src/ITHACA_FOMPROBLEMS/burgers/burgers.C, line 637 #################### 0.0012 0.001
Time = 0.161

DILUPBiCGStab:  Solving for Ux, Initial residual = 0.000172665, Final residual = 4.94351e-10, No Iterations 1
DILUPBiCGStab:  Solving for Uy, Initial residual = 0.000172665, Final residual = 4.94351e-10, No Iterations 1
 #################### DEBUG ~/OpenFOAM/OpenFOAM-v2006/applications/utilities/ITHACA-FV/src/ITHACA_FOMPROBLEMS/burgers/burgers.C, line 637 #################### 0.0002 0.001
Time = 0.162

DILUPBiCGStab:  Solving for Ux, Initial residual = 0.000172664, Final residual = 4.94338e-10, No Iterations 1
DILUPBiCGStab:  Solving for Uy, Initial residual = 0.000172664, Final residual = 4.94338e-10, No Iterations 1
 #################### DEBUG ~/OpenFOAM/OpenFOAM-v2006/applications/utilities/ITHACA-FV/src/ITHACA_FOMPROBLEMS/burgers/burgers.C, line 637 #################### 0.0005 0.001
Time = 0.163

DILUPBiCGStab:  Solving for Ux, Initial residual = 0.000172663, Final residual = 4.94326e-10, No Iterations 1
DILUPBiCGStab:  Solving for Uy, Initial residual = 0.000172663, Final residual = 4.94326e-10, No Iterations 1
 #################### DEBUG ~/OpenFOAM/OpenFOAM-v2006/applications/utilities/ITHACA-FV/src/ITHACA_FOMPROBLEMS/burgers/burgers.C, line 637 #################### 0.0008 0.001
Time = 0.164

DILUPBiCGStab:  Solving for Ux, Initial residual = 0.000172661, Final residual = 4.94313e-10, No Iterations 1
DILUPBiCGStab:  Solving for Uy, Initial residual = 0.000172661, Final residual = 4.94313e-10, No Iterations 1
 #################### DEBUG ~/OpenFOAM/OpenFOAM-v2006/applications/utilities/ITHACA-FV/src/ITHACA_FOMPROBLEMS/burgers/burgers.C, line 637 #################### 0.0011 0.001
Time = 0.165

DILUPBiCGStab:  Solving for Ux, Initial residual = 0.000172658, Final residual = 4.94297e-10, No Iterations 1
DILUPBiCGStab:  Solving for Uy, Initial residual = 0.000172658, Final residual = 4.94297e-10, No Iterations 1
 #################### DEBUG ~/OpenFOAM/OpenFOAM-v2006/applications/utilities/ITHACA-FV/src/ITHACA_FOMPROBLEMS/burgers/burgers.C, line 637 #################### 0.0001 0.001
Time = 0.166

DILUPBiCGStab:  Solving for Ux, Initial residual = 0.000172655, Final residual = 4.94282e-10, No Iterations 1
DILUPBiCGStab:  Solving for Uy, Initial residual = 0.000172655, Final residual = 4.94282e-10, No Iterations 1
 #################### DEBUG ~/OpenFOAM/OpenFOAM-v2006/applications/utilities/ITHACA-FV/src/ITHACA_FOMPROBLEMS/burgers/burgers.C, line 637 #################### 0.0004 0.001
Time = 0.167

DILUPBiCGStab:  Solving for Ux, Initial residual = 0.000172652, Final residual = 4.94264e-10, No Iterations 1
DILUPBiCGStab:  Solving for Uy, Initial residual = 0.000172652, Final residual = 4.94264e-10, No Iterations 1
 #################### DEBUG ~/OpenFOAM/OpenFOAM-v2006/applications/utilities/ITHACA-FV/src/ITHACA_FOMPROBLEMS/burgers/burgers.C, line 637 #################### 0.0007 0.001
Time = 0.168

DILUPBiCGStab:  Solving for Ux, Initial residual = 0.000172649, Final residual = 4.94246e-10, No Iterations 1
DILUPBiCGStab:  Solving for Uy, Initial residual = 0.000172649, Final residual = 4.94246e-10, No Iterations 1
 #################### DEBUG ~/OpenFOAM/OpenFOAM-v2006/applications/utilities/ITHACA-FV/src/ITHACA_FOMPROBLEMS/burgers/burgers.C, line 637 #################### 0.001 0.001
Time = 0.169

DILUPBiCGStab:  Solving for Ux, Initial residual = 0.000172644, Final residual = 4.94224e-10, No Iterations 1
DILUPBiCGStab:  Solving for Uy, Initial residual = 0.000172644, Final residual = 4.94224e-10, No Iterations 1
 #################### DEBUG ~/OpenFOAM/OpenFOAM-v2006/applications/utilities/ITHACA-FV/src/ITHACA_FOMPROBLEMS/burgers/burgers.C, line 637 #################### 0.0013 0.001
Time = 0.17

DILUPBiCGStab:  Solving for Ux, Initial residual = 0.00017264, Final residual = 4.94199e-10, No Iterations 1
DILUPBiCGStab:  Solving for Uy, Initial residual = 0.00017264, Final residual = 4.94199e-10, No Iterations 1
 #################### DEBUG ~/OpenFOAM/OpenFOAM-v2006/applications/utilities/ITHACA-FV/src/ITHACA_FOMPROBLEMS/burgers/burgers.C, line 637 #################### 0.0003 0.001
Time = 0.171

DILUPBiCGStab:  Solving for Ux, Initial residual = 0.000172636, Final residual = 4.94171e-10, No Iterations 1
DILUPBiCGStab:  Solving for Uy, Initial residual = 0.000172636, Final residual = 4.94171e-10, No Iterations 1
 #################### DEBUG ~/OpenFOAM/OpenFOAM-v2006/applications/utilities/ITHACA-FV/src/ITHACA_FOMPROBLEMS/burgers/burgers.C, line 637 #################### 0.0006 0.001
Time = 0.172

DILUPBiCGStab:  Solving for Ux, Initial residual = 0.000172634, Final residual = 4.94142e-10, No Iterations 1
DILUPBiCGStab:  Solving for Uy, Initial residual = 0.000172634, Final residual = 4.94142e-10, No Iterations 1
 #################### DEBUG ~/OpenFOAM/OpenFOAM-v2006/applications/utilities/ITHACA-FV/src/ITHACA_FOMPROBLEMS/burgers/burgers.C, line 637 #################### 0.0009 0.001
Time = 0.173

DILUPBiCGStab:  Solving for Ux, Initial residual = 0.000172633, Final residual = 4.94121e-10, No Iterations 1
DILUPBiCGStab:  Solving for Uy, Initial residual = 0.000172633, Final residual = 4.94121e-10, No Iterations 1
 #################### DEBUG ~/OpenFOAM/OpenFOAM-v2006/applications/utilities/ITHACA-FV/src/ITHACA_FOMPROBLEMS/burgers/burgers.C, line 637 #################### 0.0012 0.001
Time = 0.174

DILUPBiCGStab:  Solving for Ux, Initial residual = 0.000172632, Final residual = 4.94099e-10, No Iterations 1
DILUPBiCGStab:  Solving for Uy, Initial residual = 0.000172632, Final residual = 4.94099e-10, No Iterations 1
 #################### DEBUG ~/OpenFOAM/OpenFOAM-v2006/applications/utilities/ITHACA-FV/src/ITHACA_FOMPROBLEMS/burgers/burgers.C, line 637 #################### 0.0002 0.001
Time = 0.175

DILUPBiCGStab:  Solving for Ux, Initial residual = 0.000172632, Final residual = 4.94083e-10, No Iterations 1
DILUPBiCGStab:  Solving for Uy, Initial residual = 0.000172632, Final residual = 4.94083e-10, No Iterations 1
 #################### DEBUG ~/OpenFOAM/OpenFOAM-v2006/applications/utilities/ITHACA-FV/src/ITHACA_FOMPROBLEMS/burgers/burgers.C, line 637 #################### 0.0005 0.001
Time = 0.176

DILUPBiCGStab:  Solving for Ux, Initial residual = 0.000172632, Final residual = 4.94073e-10, No Iterations 1
DILUPBiCGStab:  Solving for Uy, Initial residual = 0.000172632, Final residual = 4.94073e-10, No Iterations 1
 #################### DEBUG ~/OpenFOAM/OpenFOAM-v2006/applications/utilities/ITHACA-FV/src/ITHACA_FOMPROBLEMS/burgers/burgers.C, line 637 #################### 0.0008 0.001
Time = 0.177

DILUPBiCGStab:  Solving for Ux, Initial residual = 0.000172632, Final residual = 4.94061e-10, No Iterations 1
DILUPBiCGStab:  Solving for Uy, Initial residual = 0.000172632, Final residual = 4.94061e-10, No Iterations 1
 #################### DEBUG ~/OpenFOAM/OpenFOAM-v2006/applications/utilities/ITHACA-FV/src/ITHACA_FOMPROBLEMS/burgers/burgers.C, line 637 #################### 0.0011 0.001
Time = 0.178

DILUPBiCGStab:  Solving for Ux, Initial residual = 0.000172633, Final residual = 4.94051e-10, No Iterations 1
DILUPBiCGStab:  Solving for Uy, Initial residual = 0.000172633, Final residual = 4.94051e-10, No Iterations 1
 #################### DEBUG ~/OpenFOAM/OpenFOAM-v2006/applications/utilities/ITHACA-FV/src/ITHACA_FOMPROBLEMS/burgers/burgers.C, line 637 #################### 0.0001 0.001
Time = 0.179

DILUPBiCGStab:  Solving for Ux, Initial residual = 0.000172633, Final residual = 4.94043e-10, No Iterations 1
DILUPBiCGStab:  Solving for Uy, Initial residual = 0.000172633, Final residual = 4.94043e-10, No Iterations 1
 #################### DEBUG ~/OpenFOAM/OpenFOAM-v2006/applications/utilities/ITHACA-FV/src/ITHACA_FOMPROBLEMS/burgers/burgers.C, line 637 #################### 0.0004 0.001
Time = 0.18

DILUPBiCGStab:  Solving for Ux, Initial residual = 0.000172633, Final residual = 4.94035e-10, No Iterations 1
DILUPBiCGStab:  Solving for Uy, Initial residual = 0.000172633, Final residual = 4.94035e-10, No Iterations 1
 #################### DEBUG ~/OpenFOAM/OpenFOAM-v2006/applications/utilities/ITHACA-FV/src/ITHACA_FOMPROBLEMS/burgers/burgers.C, line 637 #################### 0.0007 0.001
Time = 0.181

DILUPBiCGStab:  Solving for Ux, Initial residual = 0.000172633, Final residual = 4.94026e-10, No Iterations 1
DILUPBiCGStab:  Solving for Uy, Initial residual = 0.000172633, Final residual = 4.94026e-10, No Iterations 1
 #################### DEBUG ~/OpenFOAM/OpenFOAM-v2006/applications/utilities/ITHACA-FV/src/ITHACA_FOMPROBLEMS/burgers/burgers.C, line 637 #################### 0.001 0.001
Time = 0.182

DILUPBiCGStab:  Solving for Ux, Initial residual = 0.000172632, Final residual = 4.94019e-10, No Iterations 1
DILUPBiCGStab:  Solving for Uy, Initial residual = 0.000172632, Final residual = 4.94019e-10, No Iterations 1
 #################### DEBUG ~/OpenFOAM/OpenFOAM-v2006/applications/utilities/ITHACA-FV/src/ITHACA_FOMPROBLEMS/burgers/burgers.C, line 637 #################### 0.0013 0.001
Time = 0.183

DILUPBiCGStab:  Solving for Ux, Initial residual = 0.000172632, Final residual = 4.94016e-10, No Iterations 1
DILUPBiCGStab:  Solving for Uy, Initial residual = 0.000172632, Final residual = 4.94016e-10, No Iterations 1
 #################### DEBUG ~/OpenFOAM/OpenFOAM-v2006/applications/utilities/ITHACA-FV/src/ITHACA_FOMPROBLEMS/burgers/burgers.C, line 637 #################### 0.0003 0.001
Time = 0.184

DILUPBiCGStab:  Solving for Ux, Initial residual = 0.000172633, Final residual = 4.94012e-10, No Iterations 1
DILUPBiCGStab:  Solving for Uy, Initial residual = 0.000172633, Final residual = 4.94012e-10, No Iterations 1
 #################### DEBUG ~/OpenFOAM/OpenFOAM-v2006/applications/utilities/ITHACA-FV/src/ITHACA_FOMPROBLEMS/burgers/burgers.C, line 637 #################### 0.0006 0.001
Time = 0.185

DILUPBiCGStab:  Solving for Ux, Initial residual = 0.000172634, Final residual = 4.94007e-10, No Iterations 1
DILUPBiCGStab:  Solving for Uy, Initial residual = 0.000172634, Final residual = 4.94007e-10, No Iterations 1
 #################### DEBUG ~/OpenFOAM/OpenFOAM-v2006/applications/utilities/ITHACA-FV/src/ITHACA_FOMPROBLEMS/burgers/burgers.C, line 637 #################### 0.0009 0.001
Time = 0.186

DILUPBiCGStab:  Solving for Ux, Initial residual = 0.000172634, Final residual = 4.93998e-10, No Iterations 1
DILUPBiCGStab:  Solving for Uy, Initial residual = 0.000172634, Final residual = 4.93998e-10, No Iterations 1
 #################### DEBUG ~/OpenFOAM/OpenFOAM-v2006/applications/utilities/ITHACA-FV/src/ITHACA_FOMPROBLEMS/burgers/burgers.C, line 637 #################### 0.0012 0.001
Time = 0.187

DILUPBiCGStab:  Solving for Ux, Initial residual = 0.000172634, Final residual = 4.93987e-10, No Iterations 1
DILUPBiCGStab:  Solving for Uy, Initial residual = 0.000172634, Final residual = 4.93987e-10, No Iterations 1
 #################### DEBUG ~/OpenFOAM/OpenFOAM-v2006/applications/utilities/ITHACA-FV/src/ITHACA_FOMPROBLEMS/burgers/burgers.C, line 637 #################### 0.0002 0.001
Time = 0.188

DILUPBiCGStab:  Solving for Ux, Initial residual = 0.000172633, Final residual = 4.93976e-10, No Iterations 1
DILUPBiCGStab:  Solving for Uy, Initial residual = 0.000172633, Final residual = 4.93976e-10, No Iterations 1
 #################### DEBUG ~/OpenFOAM/OpenFOAM-v2006/applications/utilities/ITHACA-FV/src/ITHACA_FOMPROBLEMS/burgers/burgers.C, line 637 #################### 0.0005 0.001
Time = 0.189

DILUPBiCGStab:  Solving for Ux, Initial residual = 0.000172632, Final residual = 4.93968e-10, No Iterations 1
DILUPBiCGStab:  Solving for Uy, Initial residual = 0.000172632, Final residual = 4.93968e-10, No Iterations 1
 #################### DEBUG ~/OpenFOAM/OpenFOAM-v2006/applications/utilities/ITHACA-FV/src/ITHACA_FOMPROBLEMS/burgers/burgers.C, line 637 #################### 0.0008 0.001
Time = 0.19

DILUPBiCGStab:  Solving for Ux, Initial residual = 0.000172633, Final residual = 4.93965e-10, No Iterations 1
DILUPBiCGStab:  Solving for Uy, Initial residual = 0.000172633, Final residual = 4.93965e-10, No Iterations 1
 #################### DEBUG ~/OpenFOAM/OpenFOAM-v2006/applications/utilities/ITHACA-FV/src/ITHACA_FOMPROBLEMS/burgers/burgers.C, line 637 #################### 0.0011 0.001
Time = 0.191

DILUPBiCGStab:  Solving for Ux, Initial residual = 0.000172633, Final residual = 4.93962e-10, No Iterations 1
DILUPBiCGStab:  Solving for Uy, Initial residual = 0.000172633, Final residual = 4.93962e-10, No Iterations 1
 #################### DEBUG ~/OpenFOAM/OpenFOAM-v2006/applications/utilities/ITHACA-FV/src/ITHACA_FOMPROBLEMS/burgers/burgers.C, line 637 #################### 0.0001 0.001
Time = 0.192

DILUPBiCGStab:  Solving for Ux, Initial residual = 0.000172633, Final residual = 4.93955e-10, No Iterations 1
DILUPBiCGStab:  Solving for Uy, Initial residual = 0.000172633, Final residual = 4.93955e-10, No Iterations 1
 #################### DEBUG ~/OpenFOAM/OpenFOAM-v2006/applications/utilities/ITHACA-FV/src/ITHACA_FOMPROBLEMS/burgers/burgers.C, line 637 #################### 0.0004 0.001
Time = 0.193

DILUPBiCGStab:  Solving for Ux, Initial residual = 0.000172632, Final residual = 4.93948e-10, No Iterations 1
DILUPBiCGStab:  Solving for Uy, Initial residual = 0.000172632, Final residual = 4.93948e-10, No Iterations 1
 #################### DEBUG ~/OpenFOAM/OpenFOAM-v2006/applications/utilities/ITHACA-FV/src/ITHACA_FOMPROBLEMS/burgers/burgers.C, line 637 #################### 0.0007 0.001
Time = 0.194

DILUPBiCGStab:  Solving for Ux, Initial residual = 0.000172631, Final residual = 4.93937e-10, No Iterations 1
DILUPBiCGStab:  Solving for Uy, Initial residual = 0.000172631, Final residual = 4.93937e-10, No Iterations 1
[...]

################## Online solve N 1868 ##################
Time = 1.868
[32m|F(x)| = 1.68998e-14 - Minimun reached in 3 iterations [39m

################## Online solve N 1869 ##################
Time = 1.869
[32m|F(x)| = 2.04446e-14 - Minimun reached in 3 iterations [39m

################## Online solve N 1870 ##################
Time = 1.87
[32m|F(x)| = 1.14593e-14 - Minimun reached in 3 iterations [39m

################## Online solve N 1871 ##################
Time = 1.871
[32m|F(x)| = 2.35675e-14 - Minimun reached in 3 iterations [39m

################## Online solve N 1872 ##################
Time = 1.872
[32m|F(x)| = 1.22195e-14 - Minimun reached in 3 iterations [39m

################## Online solve N 1873 ##################
Time = 1.873
[32m|F(x)| = 1.41756e-14 - Minimun reached in 3 iterations [39m

################## Online solve N 1874 ##################
Time = 1.874
[32m|F(x)| = 1.97697e-14 - Minimun reached in 3 iterations [39m

################## Online solve N 1875 ##################
Time = 1.875
[32m|F(x)| = 1.59109e-14 - Minimun reached in 3 iterations [39m

################## Online solve N 1876 ##################
Time = 1.876
[32m|F(x)| = 1.56136e-14 - Minimun reached in 3 iterations [39m

################## Online solve N 1877 ##################
Time = 1.877
[32m|F(x)| = 1.4476e-14 - Minimun reached in 3 iterations [39m

################## Online solve N 1878 ##################
Time = 1.878
[32m|F(x)| = 1.56388e-14 - Minimun reached in 3 iterations [39m

################## Online solve N 1879 ##################
Time = 1.879
[32m|F(x)| = 1.19444e-14 - Minimun reached in 3 iterations [39m

################## Online solve N 1880 ##################
Time = 1.88
[32m|F(x)| = 1.39914e-14 - Minimun reached in 3 iterations [39m

################## Online solve N 1881 ##################
Time = 1.881
[32m|F(x)| = 1.85794e-14 - Minimun reached in 3 iterations [39m

################## Online solve N 1882 ##################
Time = 1.882
[32m|F(x)| = 1.36495e-14 - Minimun reached in 3 iterations [39m

################## Online solve N 1883 ##################
Time = 1.883
[32m|F(x)| = 2.10692e-14 - Minimun reached in 3 iterations [39m

################## Online solve N 1884 ##################
Time = 1.884
[32m|F(x)| = 1.96637e-14 - Minimun reached in 3 iterations [39m

################## Online solve N 1885 ##################
Time = 1.885
[32m|F(x)| = 1.03824e-14 - Minimun reached in 3 iterations [39m

################## Online solve N 1886 ##################
Time = 1.886
[32m|F(x)| = 1.93362e-14 - Minimun reached in 3 iterations [39m

################## Online solve N 1887 ##################
Time = 1.887
[32m|F(x)| = 1.39346e-14 - Minimun reached in 3 iterations [39m

################## Online solve N 1888 ##################
Time = 1.888
[32m|F(x)| = 1.38915e-14 - Minimun reached in 3 iterations [39m

################## Online solve N 1889 ##################
Time = 1.889
[32m|F(x)| = 1.8385e-14 - Minimun reached in 3 iterations [39m

################## Online solve N 1890 ##################
Time = 1.89
[32m|F(x)| = 1.39753e-14 - Minimun reached in 3 iterations [39m

################## Online solve N 1891 ##################
Time = 1.891
[32m|F(x)| = 2.09914e-14 - Minimun reached in 3 iterations [39m

################## Online solve N 1892 ##################
Time = 1.892
[32m|F(x)| = 1.23339e-14 - Minimun reached in 3 iterations [39m

################## Online solve N 1893 ##################
Time = 1.893
[32m|F(x)| = 1.51496e-14 - Minimun reached in 3 iterations [39m

################## Online solve N 1894 ##################
Time = 1.894
[32m|F(x)| = 2.05066e-14 - Minimun reached in 3 iterations [39m

################## Online solve N 1895 ##################
Time = 1.895
[32m|F(x)| = 1.292e-14 - Minimun reached in 3 iterations [39m

################## Online solve N 1896 ##################
Time = 1.896
[32m|F(x)| = 2.235e-14 - Minimun reached in 3 iterations [39m

################## Online solve N 1897 ##################
Time = 1.897
[32m|F(x)| = 1.68596e-14 - Minimun reached in 3 iterations [39m

################## Online solve N 1898 ##################
Time = 1.898
[32m|F(x)| = 2.68079e-14 - Minimun reached in 3 iterations [39m

################## Online solve N 1899 ##################
Time = 1.899
[32m|F(x)| = 1.72704e-14 - Minimun reached in 3 iterations [39m

################## Online solve N 1900 ##################
Time = 1.9
[32m|F(x)| = 1.22347e-14 - Minimun reached in 3 iterations [39m

################## Online solve N 1901 ##################
Time = 1.901
[32m|F(x)| = 1.85285e-14 - Minimun reached in 3 iterations [39m

################## Online solve N 1902 ##################
Time = 1.902
[32m|F(x)| = 2.39755e-14 - Minimun reached in 3 iterations [39m

################## Online solve N 1903 ##################
Time = 1.903
[32m|F(x)| = 1.76885e-14 - Minimun reached in 3 iterations [39m

################## Online solve N 1904 ##################
Time = 1.904
[32m|F(x)| = 1.66235e-14 - Minimun reached in 3 iterations [39m

################## Online solve N 1905 ##################
Time = 1.905
[32m|F(x)| = 2.29947e-14 - Minimun reached in 3 iterations [39m

################## Online solve N 1906 ##################
Time = 1.906
[32m|F(x)| = 2.05353e-14 - Minimun reached in 3 iterations [39m

################## Online solve N 1907 ##################
Time = 1.907
[32m|F(x)| = 2.05367e-14 - Minimun reached in 3 iterations [39m

################## Online solve N 1908 ##################
Time = 1.908
[32m|F(x)| = 2.47317e-14 - Minimun reached in 3 iterations [39m

################## Online solve N 1909 ##################
Time = 1.909
[32m|F(x)| = 1.89296e-14 - Minimun reached in 3 iterations [39m

################## Online solve N 1910 ##################
Time = 1.91
[32m|F(x)| = 1.75991e-14 - Minimun reached in 3 iterations [39m

################## Online solve N 1911 ##################
Time = 1.911
[32m|F(x)| = 2.5005e-14 - Minimun reached in 3 iterations [39m

################## Online solve N 1912 ##################
Time = 1.912
[32m|F(x)| = 2.37068e-14 - Minimun reached in 3 iterations [39m

################## Online solve N 1913 ##################
Time = 1.913
[32m|F(x)| = 1.49773e-14 - Minimun reached in 3 iterations [39m

################## Online solve N 1914 ##################
Time = 1.914
[32m|F(x)| = 1.97217e-14 - Minimun reached in 3 iterations [39m

################## Online solve N 1915 ##################
Time = 1.915
[32m|F(x)| = 2.24628e-14 - Minimun reached in 3 iterations [39m

################## Online solve N 1916 ##################
Time = 1.916
[32m|F(x)| = 2.14577e-14 - Minimun reached in 3 iterations [39m

################## Online solve N 1917 ##################
Time = 1.917
[32m|F(x)| = 1.76168e-14 - Minimun reached in 3 iterations [39m

################## Online solve N 1918 ##################
Time = 1.918
[32m|F(x)| = 1.256e-14 - Minimun reached in 3 iterations [39m

################## Online solve N 1919 ##################
Time = 1.919
[32m|F(x)| = 1.88425e-14 - Minimun reached in 3 iterations [39m

################## Online solve N 1920 ##################
Time = 1.92
[32m|F(x)| = 1.32149e-14 - Minimun reached in 3 iterations [39m

################## Online solve N 1921 ##################
Time = 1.921
[32m|F(x)| = 1.84096e-14 - Minimun reached in 3 iterations [39m

################## Online solve N 1922 ##################
Time = 1.922
[32m|F(x)| = 2.45749e-14 - Minimun reached in 3 iterations [39m

################## Online solve N 1923 ##################
Time = 1.923
[32m|F(x)| = 5.74829e-15 - Minimun reached in 3 iterations [39m

################## Online solve N 1924 ##################
Time = 1.924
[32m|F(x)| = 2.32843e-14 - Minimun reached in 3 iterations [39m

################## Online solve N 1925 ##################
Time = 1.925
[32m|F(x)| = 2.09815e-14 - Minimun reached in 3 iterations [39m

################## Online solve N 1926 ##################
Time = 1.926
[32m|F(x)| = 1.53354e-14 - Minimun reached in 3 iterations [39m

################## Online solve N 1927 ##################
Time = 1.927
[32m|F(x)| = 1.03425e-14 - Minimun reached in 3 iterations [39m

################## Online solve N 1928 ##################
Time = 1.928
[32m|F(x)| = 2.28953e-14 - Minimun reached in 3 iterations [39m

################## Online solve N 1929 ##################
Time = 1.929
[32m|F(x)| = 1.60745e-14 - Minimun reached in 3 iterations [39m

################## Online solve N 1930 ##################
Time = 1.93
[32m|F(x)| = 2.68497e-14 - Minimun reached in 3 iterations [39m

################## Online solve N 1931 ##################
Time = 1.931
[32m|F(x)| = 2.44763e-14 - Minimun reached in 3 iterations [39m

################## Online solve N 1932 ##################
Time = 1.932
[32m|F(x)| = 1.54958e-14 - Minimun reached in 3 iterations [39m

################## Online solve N 1933 ##################
Time = 1.933
[32m|F(x)| = 2.1728e-14 - Minimun reached in 3 iterations [39m

################## Online solve N 1934 ##################
Time = 1.934
[32m|F(x)| = 2.47418e-14 - Minimun reached in 3 iterations [39m

################## Online solve N 1935 ##################
Time = 1.935
[32m|F(x)| = 1.69418e-14 - Minimun reached in 3 iterations [39m

################## Online solve N 1936 ##################
Time = 1.936
[32m|F(x)| = 1.34169e-14 - Minimun reached in 3 iterations [39m

################## Online solve N 1937 ##################
Time = 1.937
[32m|F(x)| = 2.13866e-14 - Minimun reached in 3 iterations [39m

################## Online solve N 1938 ##################
Time = 1.938
[32m|F(x)| = 2.21396e-14 - Minimun reached in 3 iterations [39m

################## Online solve N 1939 ##################
Time = 1.939
[32m|F(x)| = 1.46368e-14 - Minimun reached in 3 iterations [39m

################## Online solve N 1940 ##################
Time = 1.94
[32m|F(x)| = 2.67176e-14 - Minimun reached in 3 iterations [39m

################## Online solve N 1941 ##################
Time = 1.941
[32m|F(x)| = 1.83961e-14 - Minimun reached in 3 iterations [39m

################## Online solve N 1942 ##################
Time = 1.942
[32m|F(x)| = 1.43565e-14 - Minimun reached in 3 iterations [39m

################## Online solve N 1943 ##################
Time = 1.943
[32m|F(x)| = 1.45967e-14 - Minimun reached in 3 iterations [39m

################## Online solve N 1944 ##################
Time = 1.944
[32m|F(x)| = 2.49669e-14 - Minimun reached in 3 iterations [39m

################## Online solve N 1945 ##################
Time = 1.945
[32m|F(x)| = 2.939e-14 - Minimun reached in 3 iterations [39m

################## Online solve N 1946 ##################
Time = 1.946
[32m|F(x)| = 1.60233e-14 - Minimun reached in 3 iterations [39m

################## Online solve N 1947 ##################
Time = 1.947
[32m|F(x)| = 2.11755e-14 - Minimun reached in 3 iterations [39m

################## Online solve N 1948 ##################
Time = 1.948
[32m|F(x)| = 1.90103e-14 - Minimun reached in 3 iterations [39m

################## Online solve N 1949 ##################
Time = 1.949
[32m|F(x)| = 2.07959e-14 - Minimun reached in 3 iterations [39m

################## Online solve N 1950 ##################
Time = 1.95
[32m|F(x)| = 1.77992e-14 - Minimun reached in 3 iterations [39m

################## Online solve N 1951 ##################
Time = 1.951
[32m|F(x)| = 2.05817e-14 - Minimun reached in 3 iterations [39m

################## Online solve N 1952 ##################
Time = 1.952
[32m|F(x)| = 1.54476e-14 - Minimun reached in 3 iterations [39m

################## Online solve N 1953 ##################
Time = 1.953
[32m|F(x)| = 3.05404e-14 - Minimun reached in 3 iterations [39m

################## Online solve N 1954 ##################
Time = 1.954
[32m|F(x)| = 2.24967e-14 - Minimun reached in 3 iterations [39m

################## Online solve N 1955 ##################
Time = 1.955
[32m|F(x)| = 2.66858e-14 - Minimun reached in 3 iterations [39m

################## Online solve N 1956 ##################
Time = 1.956
[32m|F(x)| = 1.36169e-14 - Minimun reached in 3 iterations [39m

################## Online solve N 1957 ##################
Time = 1.957
[32m|F(x)| = 1.49372e-14 - Minimun reached in 3 iterations [39m

################## Online solve N 1958 ##################
Time = 1.958
[32m|F(x)| = 1.53692e-14 - Minimun reached in 3 iterations [39m

################## Online solve N 1959 ##################
Time = 1.959
[32m|F(x)| = 1.19356e-14 - Minimun reached in 3 iterations [39m

################## Online solve N 1960 ##################
Time = 1.96
[32m|F(x)| = 3.06236e-14 - Minimun reached in 3 iterations [39m

################## Online solve N 1961 ##################
Time = 1.961
[32m|F(x)| = 2.27304e-14 - Minimun reached in 3 iterations [39m

################## Online solve N 1962 ##################
Time = 1.962
[32m|F(x)| = 2.13148e-14 - Minimun reached in 3 iterations [39m

################## Online solve N 1963 ##################
Time = 1.963
[32m|F(x)| = 1.95119e-14 - Minimun reached in 3 iterations [39m

################## Online solve N 1964 ##################
Time = 1.964
[32m|F(x)| = 2.18386e-14 - Minimun reached in 3 iterations [39m

################## Online solve N 1965 ##################
Time = 1.965
[32m|F(x)| = 1.22347e-14 - Minimun reached in 3 iterations [39m

################## Online solve N 1966 ##################
Time = 1.966
[32m|F(x)| = 2.11192e-14 - Minimun reached in 3 iterations [39m

################## Online solve N 1967 ##################
Time = 1.967
[32m|F(x)| = 2.92387e-14 - Minimun reached in 3 iterations [39m

################## Online solve N 1968 ##################
Time = 1.968
[32m|F(x)| = 2.1189e-14 - Minimun reached in 3 iterations [39m

################## Online solve N 1969 ##################
Time = 1.969
[32m|F(x)| = 3.02155e-14 - Minimun reached in 3 iterations [39m

################## Online solve N 1970 ##################
Time = 1.97
[32m|F(x)| = 1.99895e-14 - Minimun reached in 3 iterations [39m

################## Online solve N 1971 ##################
Time = 1.971
[32m|F(x)| = 1.45269e-14 - Minimun reached in 3 iterations [39m

################## Online solve N 1972 ##################
Time = 1.972
[32m|F(x)| = 1.58614e-14 - Minimun reached in 3 iterations [39m

################## Online solve N 1973 ##################
Time = 1.973
[32m|F(x)| = 1.91925e-14 - Minimun reached in 3 iterations [39m

################## Online solve N 1974 ##################
Time = 1.974
[32m|F(x)| = 1.68244e-14 - Minimun reached in 3 iterations [39m

################## Online solve N 1975 ##################
Time = 1.975
[32m|F(x)| = 2.44169e-14 - Minimun reached in 3 iterations [39m

################## Online solve N 1976 ##################
Time = 1.976
[32m|F(x)| = 1.22013e-14 - Minimun reached in 3 iterations [39m

################## Online solve N 1977 ##################
Time = 1.977
[32m|F(x)| = 1.31859e-14 - Minimun reached in 3 iterations [39m

################## Online solve N 1978 ##################
Time = 1.978
[32m|F(x)| = 3.14761e-14 - Minimun reached in 3 iterations [39m

################## Online solve N 1979 ##################
Time = 1.979
[32m|F(x)| = 1.99119e-14 - Minimun reached in 3 iterations [39m

################## Online solve N 1980 ##################
Time = 1.98
[32m|F(x)| = 8.29288e-15 - Minimun reached in 3 iterations [39m

################## Online solve N 1981 ##################
Time = 1.981
[32m|F(x)| = 2.14914e-14 - Minimun reached in 3 iterations [39m

################## Online solve N 1982 ##################
Time = 1.982
[32m|F(x)| = 2.04966e-14 - Minimun reached in 3 iterations [39m

################## Online solve N 1983 ##################
Time = 1.983
[32m|F(x)| = 2.43401e-14 - Minimun reached in 3 iterations [39m

################## Online solve N 1984 ##################
Time = 1.984
[32m|F(x)| = 1.61626e-14 - Minimun reached in 3 iterations [39m

################## Online solve N 1985 ##################
Time = 1.985
[32m|F(x)| = 1.56691e-14 - Minimun reached in 3 iterations [39m

################## Online solve N 1986 ##################
Time = 1.986
[32m|F(x)| = 9.04376e-15 - Minimun reached in 3 iterations [39m

################## Online solve N 1987 ##################
Time = 1.987
[32m|F(x)| = 2.50343e-14 - Minimun reached in 3 iterations [39m

################## Online solve N 1988 ##################
Time = 1.988
[32m|F(x)| = 1.58498e-14 - Minimun reached in 3 iterations [39m

################## Online solve N 1989 ##################
Time = 1.989
[32m|F(x)| = 1.649e-14 - Minimun reached in 3 iterations [39m

################## Online solve N 1990 ##################
Time = 1.99
[32m|F(x)| = 3.08155e-14 - Minimun reached in 3 iterations [39m

################## Online solve N 1991 ##################
Time = 1.991
[32m|F(x)| = 1.89538e-14 - Minimun reached in 3 iterations [39m

################## Online solve N 1992 ##################
Time = 1.992
[32m|F(x)| = 2.6579e-14 - Minimun reached in 3 iterations [39m

################## Online solve N 1993 ##################
Time = 1.993
[32m|F(x)| = 1.54934e-14 - Minimun reached in 3 iterations [39m

################## Online solve N 1994 ##################
Time = 1.994
[32m|F(x)| = 2.4525e-14 - Minimun reached in 3 iterations [39m

################## Online solve N 1995 ##################
Time = 1.995
[32m|F(x)| = 2.23406e-14 - Minimun reached in 3 iterations [39m

################## Online solve N 1996 ##################
Time = 1.996
[32m|F(x)| = 6.88884e-15 - Minimun reached in 3 iterations [39m

################## Online solve N 1997 ##################
Time = 1.997
[32m|F(x)| = 1.77756e-14 - Minimun reached in 3 iterations [39m

################## Online solve N 1998 ##################
Time = 1.998
[32m|F(x)| = 1.27648e-14 - Minimun reached in 3 iterations [39m

################## Online solve N 1999 ##################
Time = 1.999
[32m|F(x)| = 1.72451e-14 - Minimun reached in 3 iterations [39m

################## Online solve N 2000 ##################
Time = 2
[32m|F(x)| = 1.88033e-14 - Minimun reached in 3 iterations [39m

################## Online solve N 2001 ##################
Time = 2.001
[32m|F(x)| = 5.1409e-15 - Minimun reached in 3 iterations [39m

######### Exporting the Data for uRec #########
  4% [||                                                          ]  9% [|||||                                                       ] 14% [||||||||                                                    ] 19% [|||||||||||                                                 ] 23% [||||||||||||||                                              ] 28% [|||||||||||||||||                                           ] 33% [||||||||||||||||||||                                        ] 38% [||||||||||||||||||||||                                      ] 42% [|||||||||||||||||||||||||                                   ] 47% [||||||||||||||||||||||||||||                                ] 52% [|||||||||||||||||||||||||||||||                             ] 57% [||||||||||||||||||||||||||||||||||                          ] 61% [|||||||||||||||||||||||||||||||||||||                       ] 66% [||||||||||||||||||||||||||||||||||||||||                    ] 71% [||||||||||||||||||||||||||||||||||||||||||                  ] 76% [|||||||||||||||||||||||||||||||||||||||||||||               ] 80% [||||||||||||||||||||||||||||||||||||||||||||||||            ] 85% [|||||||||||||||||||||||||||||||||||||||||||||||||||         ] 90% [||||||||||||||||||||||||||||||||||||||||||||||||||||||      ] 95% [|||||||||||||||||||||||||||||||||||||||||||||||||||||||||   ]100% [||||||||||||||||||||||||||||||||||||||||||||||||||||||||||||]
